/*--------------------------------*- C++ -*----------------------------------*\
| =========                 |                                                 |
| \\      /  F ield         | OpenFOAM: The Open Source CFD Toolbox           |
|  \\    /   O peration     | Version:  v2106                                 |
|   \\  /    A nd           | Website:  www.openfoam.com                      |
|    \\/     M anipulation  |                                                 |
\*---------------------------------------------------------------------------*/
FoamFile
{
    version     2.0;
    format      ascii;
    class       volScalarField;
    object      p;
}
// * * * * * * * * * * * * * * * * * * * * * * * * * * * * * * * * * * * * * //

dimensions      [0 2 -2 0 0 0 0];

internalField   uniform 0;

boundaryField
{
    AMI1
    {
        type            cyclicAMI;
        value           uniform 0;
    }

    AMI2
    {
        type            cyclicAMI;
        value           uniform 0;
    }

    AMI3
    {
        type            cyclicAMI;
        value           uniform 0;
    }

    AMI4
    {
        type            cyclicAMI;
        value           uniform 0;
    }

    AMI5
    {
        type            cyclicAMI;
        value           uniform 0;
    }

    AMI6
    {
        type            cyclicAMI;
        value           uniform 0;
    }

    AMI7
    {
        type            cyclicAMI;
        value           uniform 0;
    }

    AMI8
    {
        type            cyclicAMI;
        value           uniform 0;
    }

    fans
    {
        type            fixedFluxPressure;
        value           uniform 0;
    }

    inlet
    {
        type            fixedFluxPressure;
        value           uniform 0;
    }

    outlet
    {
        type            fixedValue;
        value           uniform 0;
    }

    walls
    {
        type            fixedFluxPressure;
        value           uniform 0;
    }

    allBoundary
    {
        type            fixedFluxPressure;
        value           uniform 0;
    }

}


// ************************************************************************* //
