/*--------------------------------*- C++ -*----------------------------------*\
| =========                 |                                                 |
| \\      /  F ield         | OpenFOAM: The Open Source CFD Toolbox           |
|  \\    /   O peration     | Version:  2106                                  |
|   \\  /    A nd           | Website:  www.openfoam.com                      |
|    \\/     M anipulation  |                                                 |
\*---------------------------------------------------------------------------*/
FoamFile
{
    version     2.0;
    format      ascii;
    arch        "LSB;label=32;scalar=64";
    class       featureEdgeMesh;
    location    "constant/triSurface";
    object      cylinder2S.eMesh;
}
// * * * * * * * * * * * * * * * * * * * * * * * * * * * * * * * * * * * * * //


// points:

64
(
(0 1.1 1)
(0.03901806 1.096157 1)
(0.03901806 1.096157 0.6)
(0 1.1 0.6)
(0.07653669 1.084776 1)
(0.07653669 1.084776 0.6)
(0.111114 1.066294 1)
(0.111114 1.066294 0.6)
(0.1414214 1.041421 1)
(0.1414214 1.041421 0.6)
(0.1662939 1.011114 1)
(0.1662939 1.011114 0.6)
(0.1847759 0.9765366 1)
(0.1847759 0.9765366 0.6)
(0.1961571 0.9390181 1)
(0.1961571 0.9390181 0.6)
(0.2 0.9 1)
(0.2 0.9 0.6)
(0.1961571 0.8609819 1)
(0.1961571 0.8609819 0.6)
(0.1847759 0.8234633 1)
(0.1847759 0.8234633 0.6)
(0.1662939 0.788886 1)
(0.1662939 0.788886 0.6)
(0.1414214 0.7585786 1)
(0.1414214 0.7585786 0.6)
(0.111114 0.7337061 1)
(0.111114 0.7337061 0.6)
(0.0765367 0.7152241 1)
(0.0765367 0.7152241 0.6)
(0.03901806 0.7038429 1)
(0.03901806 0.7038429 0.6)
(-1.748456e-08 0.7 1)
(-1.748456e-08 0.7 0.6)
(-0.03901805 0.7038429 1)
(-0.03901805 0.7038429 0.6)
(-0.07653669 0.7152241 1)
(-0.07653669 0.7152241 0.6)
(-0.1111141 0.7337061 1)
(-0.1111141 0.7337061 0.6)
(-0.1414213 0.7585786 1)
(-0.1414213 0.7585786 0.6)
(-0.1662939 0.7888859 1)
(-0.1662939 0.7888859 0.6)
(-0.1847759 0.8234633 1)
(-0.1847759 0.8234633 0.6)
(-0.1961571 0.8609819 1)
(-0.1961571 0.8609819 0.6)
(-0.2 0.9 1)
(-0.2 0.9 0.6)
(-0.1961571 0.9390181 1)
(-0.1961571 0.9390181 0.6)
(-0.1847759 0.9765367 1)
(-0.1847759 0.9765367 0.6)
(-0.1662939 1.011114 1)
(-0.1662939 1.011114 0.6)
(-0.1414214 1.041421 1)
(-0.1414214 1.041421 0.6)
(-0.1111141 1.066294 1)
(-0.1111141 1.066294 0.6)
(-0.07653669 1.084776 1)
(-0.07653669 1.084776 0.6)
(-0.03901805 1.096157 1)
(-0.03901805 1.096157 0.6)
)


// edges:

64
(
(0 1)
(2 3)
(1 4)
(5 2)
(4 6)
(7 5)
(6 8)
(9 7)
(8 10)
(11 9)
(10 12)
(13 11)
(12 14)
(15 13)
(14 16)
(17 15)
(16 18)
(19 17)
(18 20)
(21 19)
(20 22)
(23 21)
(22 24)
(25 23)
(24 26)
(27 25)
(26 28)
(29 27)
(28 30)
(31 29)
(30 32)
(33 31)
(32 34)
(35 33)
(34 36)
(37 35)
(36 38)
(39 37)
(38 40)
(41 39)
(40 42)
(43 41)
(42 44)
(45 43)
(44 46)
(47 45)
(46 48)
(49 47)
(48 50)
(51 49)
(50 52)
(53 51)
(52 54)
(55 53)
(54 56)
(57 55)
(56 58)
(59 57)
(58 60)
(61 59)
(62 60)
(0 62)
(63 61)
(3 63)
)

// * * * * * * * * * * * * * * * * * * * * * * * * * * * * * * * * * * * * * //


// ************************************************************************* //
