/*--------------------------------*- C++ -*----------------------------------*\
| =========                 |                                                 |
| \\      /  F ield         | OpenFOAM: The Open Source CFD Toolbox           |
|  \\    /   O peration     | Version:  2106                                  |
|   \\  /    A nd           | Website:  www.openfoam.com                      |
|    \\/     M anipulation  |                                                 |
\*---------------------------------------------------------------------------*/
FoamFile
{
    version     2.0;
    format      ascii;
    arch        "LSB;label=32;scalar=64";
    class       featureEdgeMesh;
    location    "constant/triSurface";
    object      twoFansY12.eMesh;
}
// * * * * * * * * * * * * * * * * * * * * * * * * * * * * * * * * * * * * * //


// points:

168
(
(0.02938926 -0.8595491 0.775)
(0.02938926 -0.8595491 0.825)
(0.04755283 -0.8845491 0.825)
(0.04755283 -0.8845491 0.775)
(0.04755282 -0.9154508 0.775)
(0.04755282 -0.9154508 0.825)
(0.02938926 -0.9404508 0.825)
(0.02938926 -0.9404508 0.775)
(-4.371139e-09 -0.95 0.775)
(-4.371139e-09 -0.95 0.825)
(-0.02938927 -0.9404508 0.825)
(-0.02938927 -0.9404508 0.775)
(-0.04755282 -0.9154508 0.775)
(-0.04755282 -0.9154508 0.825)
(-0.04755282 -0.8845491 0.825)
(-0.04755282 -0.8845491 0.775)
(-0.02938927 -0.8595491 0.775)
(-0.02938927 -0.8595491 0.825)
(0 -0.85 0.825)
(0 -0.85 0.775)
(0.02938926 0.9404508 0.775)
(0.02938926 0.9404508 0.825)
(0.04755283 0.9154508 0.825)
(0.04755283 0.9154508 0.775)
(0.04755282 0.8845491 0.775)
(0.04755282 0.8845491 0.825)
(0.02938926 0.8595491 0.825)
(0.02938926 0.8595491 0.775)
(-4.371139e-09 0.85 0.775)
(-4.371139e-09 0.85 0.825)
(-0.02938927 0.8595491 0.825)
(-0.02938927 0.8595491 0.775)
(-0.04755282 0.8845491 0.775)
(-0.04755282 0.8845491 0.825)
(-0.04755282 0.9154508 0.825)
(-0.04755282 0.9154508 0.775)
(-0.02938927 0.9404508 0.775)
(-0.02938927 0.9404508 0.825)
(0 0.95 0.825)
(0 0.95 0.775)
(-0.03515751 -0.8674884 0.7848135)
(-0.04178458 -0.8766098 0.7848135)
(-0.1065059 -0.829587 0.7848135)
(-0.09987888 -0.8204656 0.7848135)
(0.009333218 -0.8530325 0.7848135)
(0.009333218 -0.8530325 0.8151865)
(0.03405456 -0.776948 0.8151865)
(0.03405456 -0.776948 0.7848135)
(0.009333211 -0.9469674 0.7848135)
(0.02005604 -0.9434834 0.7848135)
(0.04477738 -1.019568 0.7848135)
(0.03405454 -1.023052 0.7848135)
(-0.04178458 -0.8766098 0.8151865)
(-0.1065059 -0.829587 0.8151865)
(-0.0238106 -0.9327725 0.825)
(-4.073729e-09 -0.940509 0.825)
(-4.146146e-09 -0.940509 0.819)
(-0.0238106 -0.9327725 0.819)
(0.02005604 -0.8565166 0.8151865)
(0.04477739 -0.780432 0.8151865)
(2.974098e-10 -0.859491 0.825)
(0.0238106 -0.8672275 0.825)
(0.03852636 -0.887482 0.825)
(0.03852636 -0.912518 0.825)
(0.0238106 -0.9327725 0.825)
(-0.03852636 -0.912518 0.825)
(-0.03852636 -0.887482 0.825)
(-0.0238106 -0.8672275 0.825)
(0.03852636 -0.887482 0.819)
(0.03852636 -0.912518 0.819)
(-0.0238106 -0.8672275 0.819)
(2.249929e-10 -0.859491 0.819)
(-0.03852636 -0.912518 0.819)
(0.0238106 -0.9327725 0.819)
(0.0238106 -0.8672275 0.819)
(-0.03852636 -0.887482 0.819)
(0.02005604 -0.8565166 0.7848135)
(0.04755283 -0.8943626 0.8151865)
(0.04755283 -0.8943626 0.7848135)
(0.04755282 -0.9056373 0.7848135)
(0.04755282 -0.9056373 0.8151865)
(0.02005604 -0.9434834 0.8151865)
(0.009333211 -0.9469674 0.8151865)
(-0.03515751 -0.9325115 0.8151865)
(-0.03515751 -0.9325115 0.7848135)
(-0.04178458 -0.9233902 0.7848135)
(-0.04178458 -0.9233902 0.8151865)
(-0.03515751 -0.8674884 0.8151865)
(0.04477739 -0.780432 0.7848135)
(0.1275528 -0.9056373 0.8151865)
(0.1275528 -0.9056373 0.7848135)
(-0.1065059 -0.970413 0.8151865)
(-0.1031924 -0.9749736 0.8151865)
(-0.09987888 -0.9795343 0.8151865)
(0.1275528 -0.8943627 0.8151865)
(-0.09987888 -0.9795343 0.7848135)
(-0.1031924 -0.9749736 0.7848135)
(-0.1065059 -0.970413 0.7848135)
(0.03405454 -1.023052 0.8151865)
(0.04477738 -1.019568 0.8151865)
(-0.09987888 -0.8204656 0.8151865)
(0.1275528 -0.8943627 0.7848135)
(-0.03515751 0.9325115 0.7848135)
(-0.04178458 0.9233902 0.7848135)
(-0.1065059 0.970413 0.7848135)
(-0.09987888 0.9795343 0.7848135)
(0.009333218 0.9469674 0.7848135)
(0.009333218 0.9469674 0.8151865)
(0.03405456 1.023052 0.8151865)
(0.03405456 1.023052 0.7848135)
(0.009333211 0.8530325 0.7848135)
(0.02005604 0.8565166 0.7848135)
(0.04477738 0.780432 0.7848135)
(0.03405454 0.776948 0.7848135)
(-0.04178458 0.9233902 0.8151865)
(-0.1065059 0.970413 0.8151865)
(-0.0238106 0.8672275 0.825)
(-4.073729e-09 0.859491 0.825)
(-4.146146e-09 0.859491 0.819)
(-0.0238106 0.8672275 0.819)
(0.02005604 0.9434834 0.8151865)
(0.04477739 1.019568 0.8151865)
(2.974098e-10 0.940509 0.825)
(0.0238106 0.9327725 0.825)
(0.03852636 0.912518 0.825)
(0.03852636 0.887482 0.825)
(0.0238106 0.8672275 0.825)
(-0.03852636 0.887482 0.825)
(-0.03852636 0.912518 0.825)
(-0.0238106 0.9327725 0.825)
(0.03852636 0.912518 0.819)
(0.03852636 0.887482 0.819)
(-0.0238106 0.9327725 0.819)
(2.249929e-10 0.940509 0.819)
(-0.03852636 0.887482 0.819)
(0.0238106 0.8672275 0.819)
(0.0238106 0.9327725 0.819)
(-0.03852636 0.912518 0.819)
(0.02005604 0.9434834 0.7848135)
(0.04755283 0.9056373 0.8151865)
(0.04755283 0.9056373 0.7848135)
(0.04755282 0.8943626 0.7848135)
(0.04755282 0.8943626 0.8151865)
(0.02005604 0.8565166 0.8151865)
(0.009333211 0.8530325 0.8151865)
(-0.03515751 0.8674884 0.8151865)
(-0.03515751 0.8674884 0.7848135)
(-0.04178458 0.8766098 0.7848135)
(-0.04178458 0.8766098 0.8151865)
(-0.03515751 0.9325115 0.8151865)
(0.04477739 1.019568 0.7848135)
(0.1275528 0.8943626 0.8151865)
(0.1275528 0.8943626 0.7848135)
(-0.1065059 0.829587 0.8151865)
(-0.1031924 0.8250263 0.8151865)
(-0.09987888 0.8204656 0.8151865)
(0.1275528 0.9056373 0.8151865)
(-0.09987888 0.8204656 0.7848135)
(-0.1031924 0.8250263 0.7848135)
(-0.1065059 0.829587 0.7848135)
(0.03405454 0.776948 0.8151865)
(0.04477738 0.780432 0.8151865)
(-0.09987888 0.9795343 0.8151865)
(0.1275528 0.9056373 0.7848135)
(-0.1065059 -0.970413 0.8)
(-0.09987888 0.8204656 0.8)
(-0.1065059 0.829587 0.8)
(-0.09987888 -0.9795343 0.8)
)


// edges:

310
(
(41 42)
(43 40)
(1 2)
(0 1)
(3 0)
(2 3)
(45 46)
(47 44)
(5 6)
(4 5)
(7 4)
(6 7)
(49 50)
(51 48)
(9 10)
(8 9)
(11 8)
(10 11)
(52 53)
(13 14)
(12 13)
(15 12)
(14 15)
(58 59)
(17 18)
(16 17)
(19 16)
(18 19)
(19 0)
(3 4)
(7 8)
(11 12)
(15 16)
(1 18)
(5 2)
(9 6)
(13 10)
(17 14)
(82 98)
(99 81)
(76 88)
(87 100)
(77 94)
(101 78)
(83 93)
(95 84)
(90 79)
(97 85)
(80 89)
(86 91)
(91 164)
(164 97)
(103 104)
(105 102)
(21 22)
(20 21)
(23 20)
(22 23)
(107 108)
(109 106)
(25 26)
(24 25)
(27 24)
(26 27)
(111 112)
(113 110)
(29 30)
(28 29)
(31 28)
(30 31)
(114 115)
(33 34)
(32 33)
(35 32)
(34 35)
(120 121)
(37 38)
(36 37)
(39 36)
(38 39)
(39 20)
(23 24)
(27 28)
(31 32)
(35 36)
(21 38)
(25 22)
(29 26)
(33 30)
(37 34)
(144 160)
(161 143)
(138 150)
(149 162)
(139 156)
(163 140)
(145 155)
(157 146)
(152 141)
(159 147)
(142 151)
(148 153)
(157 165)
(165 155)
(153 166)
(166 159)
(40 41)
(44 45)
(48 49)
(41 52)
(55 56)
(57 54)
(45 58)
(62 68)
(69 63)
(67 70)
(71 60)
(72 65)
(73 64)
(74 61)
(75 66)
(44 76)
(76 58)
(77 78)
(78 79)
(80 77)
(79 80)
(81 49)
(82 81)
(48 82)
(83 84)
(84 85)
(86 83)
(85 86)
(87 52)
(40 87)
(92 93)
(96 97)
(95 167)
(167 93)
(102 103)
(106 107)
(110 111)
(103 114)
(117 118)
(119 116)
(107 120)
(124 130)
(131 125)
(129 132)
(133 122)
(134 127)
(135 126)
(136 123)
(137 128)
(106 138)
(138 120)
(139 140)
(140 141)
(142 139)
(141 142)
(143 111)
(144 143)
(110 144)
(145 146)
(146 147)
(148 145)
(147 148)
(149 114)
(102 149)
(154 155)
(158 159)
(56 57)
(68 69)
(70 71)
(57 72)
(69 73)
(71 74)
(72 75)
(73 56)
(74 68)
(75 70)
(118 119)
(130 131)
(132 133)
(119 134)
(131 135)
(133 136)
(134 137)
(135 118)
(136 130)
(137 132)
(42 43)
(46 47)
(50 51)
(53 42)
(54 55)
(59 46)
(60 61)
(61 62)
(62 63)
(63 64)
(64 55)
(54 65)
(65 66)
(66 67)
(67 60)
(88 47)
(47 88)
(47 47)
(88 88)
(89 90)
(90 89)
(90 90)
(89 89)
(91 92)
(92 91)
(91 91)
(93 91)
(91 93)
(93 93)
(94 89)
(89 94)
(94 94)
(95 96)
(96 95)
(95 95)
(97 95)
(95 97)
(97 97)
(98 99)
(88 59)
(100 53)
(51 98)
(94 101)
(43 100)
(93 95)
(101 90)
(97 91)
(99 50)
(99 99)
(50 50)
(59 59)
(46 46)
(53 53)
(42 42)
(51 51)
(43 43)
(98 98)
(100 100)
(101 101)
(104 105)
(108 109)
(112 113)
(115 104)
(116 117)
(121 108)
(122 123)
(123 124)
(124 125)
(125 126)
(126 117)
(116 127)
(127 128)
(128 129)
(129 122)
(150 109)
(109 150)
(109 109)
(150 150)
(151 152)
(152 151)
(152 152)
(151 151)
(153 154)
(154 153)
(153 153)
(155 153)
(153 155)
(155 155)
(156 151)
(151 156)
(156 156)
(157 158)
(158 157)
(157 157)
(159 157)
(157 159)
(159 159)
(160 161)
(150 121)
(162 115)
(113 160)
(156 163)
(105 162)
(155 157)
(163 152)
(159 153)
(161 112)
(161 161)
(112 112)
(121 121)
(108 108)
(115 115)
(104 104)
(113 113)
(105 105)
(160 160)
(162 162)
(163 163)
)

// * * * * * * * * * * * * * * * * * * * * * * * * * * * * * * * * * * * * * //


// ************************************************************************* //
