/*--------------------------------*- C++ -*----------------------------------*\
| =========                 |                                                 |
| \\      /  F ield         | OpenFOAM: The Open Source CFD Toolbox           |
|  \\    /   O peration     | Version:  2106                                  |
|   \\  /    A nd           | Website:  www.openfoam.com                      |
|    \\/     M anipulation  |                                                 |
\*---------------------------------------------------------------------------*/
FoamFile
{
    version     2.0;
    format      ascii;
    arch        "LSB;label=32;scalar=64";
    class       featureEdgeMesh;
    location    "constant/triSurface";
    object      wallsS.eMesh;
}
// * * * * * * * * * * * * * * * * * * * * * * * * * * * * * * * * * * * * * //


// points:

188
(
(1.5 -1.5 0)
(-1.5 -1.5 0)
(-1.5 -1.214286 0)
(-1.5 -0.9285714 0)
(1.5 -1.071429 0)
(1.5 -1.357143 0)
(-1.5 -0.6428571 0)
(1.5 -0.7857143 0)
(-1.5 -0.3571429 0)
(1.5 -0.5 0)
(-1.5 -0.07142858 0)
(1.5 -0.2142857 0)
(-1.5 0.2142857 0)
(1.5 0.07142858 0)
(-1.5 0.5 0)
(1.5 0.3571429 0)
(-1.5 0.7857143 0)
(1.5 0.6428571 0)
(-1.5 1.071429 0)
(1.5 0.9285714 0)
(-1.5 1.357143 0)
(1.5 1.214286 0)
(-1.5 1.5 0)
(1.5 1.5 0)
(-1.5 -1.5 0.98)
(1.5 -1.5 0.98)
(1.5 -1.357143 0.98)
(1.5 -1.071429 0.98)
(-1.5 -0.9285714 0.98)
(-1.5 -1.214286 0.98)
(1.5 -0.7857143 0.98)
(-1.5 -0.6428571 0.98)
(1.5 -0.5 0.98)
(-1.5 -0.3571429 0.98)
(1.5 -0.2142857 0.98)
(-1.5 -0.07142858 0.98)
(1.5 0.07142858 0.98)
(-1.5 0.2142857 0.98)
(1.5 0.3571429 0.98)
(-1.5 0.5 0.98)
(1.5 0.6428571 0.98)
(-1.5 0.7857143 0.98)
(1.5 0.9285714 0.98)
(-1.5 1.071429 0.98)
(1.5 1.214286 0.98)
(-1.5 1.357143 0.98)
(1.5 1.5 0.98)
(-1.5 1.5 0.98)
(-1.5 1.5 0.04666667)
(-1.5 1.5 0.14)
(1.5 1.5 0.1866666)
(1.5 1.5 0.09333332)
(-1.5 1.5 0.2333333)
(1.5 1.5 0.2799999)
(-1.5 1.5 0.3266667)
(1.5 1.5 0.3733332)
(-1.5 1.5 0.42)
(1.5 1.5 0.4666665)
(-1.5 1.5 0.5133334)
(1.5 1.5 0.5599999)
(-1.5 1.5 0.6066667)
(1.5 1.5 0.6533332)
(-1.5 1.5 0.7000001)
(1.5 1.5 0.7466666)
(-1.5 1.5 0.7933334)
(1.5 1.5 0.84)
(-1.5 1.5 0.8866667)
(1.5 1.5 0.9333333)
(1.5 -1.5 0.04666667)
(1.5 -1.5 0.14)
(-1.5 -1.5 0.1866666)
(-1.5 -1.5 0.09333332)
(1.5 -1.5 0.2333333)
(-1.5 -1.5 0.2799999)
(1.5 -1.5 0.3266667)
(-1.5 -1.5 0.3733332)
(1.5 -1.5 0.42)
(-1.5 -1.5 0.4666665)
(1.5 -1.5 0.5133334)
(-1.5 -1.5 0.5599999)
(1.5 -1.5 0.6066667)
(-1.5 -1.5 0.6533332)
(1.5 -1.5 0.7000001)
(-1.5 -1.5 0.7466666)
(1.5 -1.5 0.7933334)
(-1.5 -1.5 0.84)
(1.5 -1.5 0.8866667)
(-1.5 -1.5 0.9333333)
(1.5 -0.2142857 0.28)
(1.5 -0.2142857 0.3733333)
(1.5 0.2142857 0.28)
(1.5 0.2142857 0.3733333)
(-1.5 0.2142857 0.28)
(-1.5 0.2142857 0.3733333)
(-1.5 -0.2142857 0.28)
(-1.5 -0.2142857 0.3733333)
(1.5 -0.2142857 0.3266667)
(1.5 -0.07142857 0.28)
(1.5 -0.07142857 0.3733333)
(1.5 0.07142858 0.28)
(1.5 0.07142858 0.3733333)
(1.5 0.2142857 0.3266667)
(-1.5 0.2142857 0.3266667)
(-1.5 0.07142857 0.28)
(-1.5 0.07142857 0.3733333)
(-1.5 -0.07142858 0.28)
(-1.5 -0.07142858 0.3733333)
(-1.5 -0.2142857 0.3266667)
(-1.5 -1.357143 0)
(-1.5 -1.357143 0.98)
(1.5 1.5 0.04666666)
(-1.5 -1.5 0.04666666)
(-1.5 -1.071429 0)
(1.5 -1.214286 0)
(-1.5 -0.7857143 0)
(1.5 -0.9285714 0)
(-1.5 -0.5 0)
(1.5 -0.6428571 0)
(-1.5 -0.2142857 0)
(1.5 -0.3571429 0)
(-1.5 0.07142857 0)
(1.5 -0.07142857 0)
(-1.5 0.3571429 0)
(1.5 0.2142857 0)
(-1.5 0.6428571 0)
(1.5 0.5 0)
(-1.5 0.9285714 0)
(1.5 0.7857143 0)
(-1.5 1.214286 0)
(1.5 1.071429 0)
(1.5 1.357143 0)
(1.5 -1.214286 0.98)
(-1.5 -1.071429 0.98)
(1.5 -0.9285714 0.98)
(-1.5 -0.7857143 0.98)
(1.5 -0.6428571 0.98)
(-1.5 -0.5 0.98)
(1.5 -0.3571429 0.98)
(-1.5 -0.2142857 0.98)
(1.5 -0.07142857 0.98)
(-1.5 0.07142857 0.98)
(1.5 0.2142857 0.98)
(-1.5 0.3571429 0.98)
(1.5 0.5 0.98)
(-1.5 0.6428571 0.98)
(1.5 0.7857143 0.98)
(-1.5 0.9285714 0.98)
(1.5 1.071429 0.98)
(-1.5 1.214286 0.98)
(1.5 1.357143 0.98)
(-1.5 1.5 0.09333333)
(1.5 1.5 0.14)
(-1.5 1.5 0.1866667)
(1.5 1.5 0.2333333)
(-1.5 1.5 0.28)
(1.5 1.5 0.3266666)
(-1.5 1.5 0.3733333)
(1.5 1.5 0.4199999)
(-1.5 1.5 0.4666667)
(1.5 1.5 0.5133332)
(-1.5 1.5 0.5600001)
(1.5 1.5 0.6066666)
(-1.5 1.5 0.6533334)
(1.5 1.5 0.6999999)
(-1.5 1.5 0.7466668)
(1.5 1.5 0.7933333)
(-1.5 1.5 0.84)
(1.5 1.5 0.8866667)
(-1.5 1.5 0.9333334)
(1.5 -1.5 0.09333333)
(-1.5 -1.5 0.14)
(1.5 -1.5 0.1866667)
(-1.5 -1.5 0.2333333)
(1.5 -1.5 0.28)
(-1.5 -1.5 0.3266666)
(1.5 -1.5 0.3733333)
(-1.5 -1.5 0.4199999)
(1.5 -1.5 0.4666667)
(-1.5 -1.5 0.5133332)
(1.5 -1.5 0.5600001)
(-1.5 -1.5 0.6066666)
(1.5 -1.5 0.6533334)
(-1.5 -1.5 0.6999999)
(1.5 -1.5 0.7466668)
(-1.5 -1.5 0.7933333)
(1.5 -1.5 0.84)
(-1.5 -1.5 0.8866667)
(1.5 -1.5 0.9333334)
)


// edges:

268
(
(0 1)
(1 108)
(108 2)
(5 0)
(22 23)
(20 22)
(24 25)
(109 24)
(25 26)
(29 109)
(46 47)
(47 45)
(110 23)
(22 48)
(51 110)
(46 67)
(111 1)
(0 68)
(71 111)
(24 87)
(3 2)
(112 3)
(2 112)
(5 4)
(113 5)
(4 113)
(6 3)
(114 6)
(3 114)
(4 7)
(115 4)
(7 115)
(8 6)
(116 8)
(6 116)
(7 9)
(117 7)
(9 117)
(10 8)
(118 10)
(8 118)
(9 11)
(119 9)
(11 119)
(12 10)
(120 12)
(10 120)
(11 13)
(121 11)
(13 121)
(14 12)
(122 14)
(12 122)
(13 15)
(123 13)
(15 123)
(16 14)
(124 16)
(14 124)
(15 17)
(125 15)
(17 125)
(18 16)
(126 18)
(16 126)
(17 19)
(127 17)
(19 127)
(20 18)
(128 20)
(18 128)
(19 21)
(129 19)
(21 129)
(21 23)
(130 21)
(23 130)
(27 26)
(26 131)
(131 27)
(29 28)
(28 132)
(132 29)
(30 27)
(27 133)
(133 30)
(28 31)
(31 134)
(134 28)
(32 30)
(30 135)
(135 32)
(31 33)
(33 136)
(136 31)
(34 32)
(32 137)
(137 34)
(33 35)
(35 138)
(138 33)
(36 34)
(34 139)
(139 36)
(35 37)
(37 140)
(140 35)
(38 36)
(36 141)
(141 38)
(37 39)
(39 142)
(142 37)
(40 38)
(38 143)
(143 40)
(39 41)
(41 144)
(144 39)
(42 40)
(40 145)
(145 42)
(41 43)
(43 146)
(146 41)
(44 42)
(42 147)
(147 44)
(43 45)
(45 148)
(148 43)
(46 44)
(149 46)
(44 149)
(49 48)
(48 150)
(150 49)
(51 50)
(151 51)
(50 151)
(52 49)
(49 152)
(152 52)
(50 53)
(153 50)
(53 153)
(54 52)
(52 154)
(154 54)
(53 55)
(155 53)
(55 155)
(56 54)
(54 156)
(156 56)
(55 57)
(157 55)
(57 157)
(58 56)
(56 158)
(158 58)
(57 59)
(159 57)
(59 159)
(60 58)
(58 160)
(160 60)
(59 61)
(161 59)
(61 161)
(62 60)
(60 162)
(162 62)
(61 63)
(163 61)
(63 163)
(64 62)
(62 164)
(164 64)
(63 65)
(165 63)
(65 165)
(66 64)
(64 166)
(166 66)
(65 67)
(167 65)
(67 167)
(47 66)
(168 47)
(66 168)
(69 68)
(68 169)
(169 69)
(71 70)
(170 71)
(70 170)
(72 69)
(69 171)
(171 72)
(70 73)
(172 70)
(73 172)
(74 72)
(72 173)
(173 74)
(73 75)
(174 73)
(75 174)
(76 74)
(74 175)
(175 76)
(75 77)
(176 75)
(77 176)
(78 76)
(76 177)
(177 78)
(77 79)
(178 77)
(79 178)
(80 78)
(78 179)
(179 80)
(79 81)
(180 79)
(81 180)
(82 80)
(80 181)
(181 82)
(81 83)
(182 81)
(83 182)
(84 82)
(82 183)
(183 84)
(83 85)
(184 83)
(85 184)
(86 84)
(84 185)
(185 86)
(85 87)
(186 85)
(87 186)
(25 86)
(187 25)
(86 187)
(88 96)
(96 89)
(97 88)
(89 98)
(99 97)
(98 100)
(90 99)
(100 91)
(101 90)
(91 101)
(92 102)
(102 93)
(103 92)
(93 104)
(105 103)
(104 106)
(94 105)
(106 95)
(107 94)
(95 107)
)

// * * * * * * * * * * * * * * * * * * * * * * * * * * * * * * * * * * * * * //


// ************************************************************************* //
