/*--------------------------------*- C++ -*----------------------------------*\
| =========                 |                                                 |
| \\      /  F ield         | OpenFOAM: The Open Source CFD Toolbox           |
|  \\    /   O peration     | Version:  v2106                                 |
|   \\  /    A nd           | Website:  www.openfoam.com                      |
|    \\/     M anipulation  |                                                 |
\*---------------------------------------------------------------------------*/
FoamFile
{
    version     2.0;
    format      ascii;
    class       dictionary;
    object      createPatchDict;
}
// * * * * * * * * * * * * * * * * * * * * * * * * * * * * * * * * * * * * * //

pointSync false;

patches
(
    {
        //- Master side patch
        name            AMI1;
        patchInfo
        {
            type            cyclicAMI;
            matchTolerance  0.0001;
            neighbourPatch  AMI2;
            transform       noOrdering;
        }
        constructFrom patches;
        patches (cylinder1);
    }

    {
        //- Slave side patch
        name            AMI2;
        patchInfo
        {
            type            cyclicAMI;
            matchTolerance  0.0001;
            neighbourPatch  AMI1;
            transform       noOrdering;
        }
        constructFrom patches;
        patches (cylinder1_slave);
    }

    {
        //- Master side patch
        name            AMI3;
        patchInfo
        {
            type            cyclicAMI;
            matchTolerance  0.0001;
            neighbourPatch  AMI4;
            transform       noOrdering;
        }
        constructFrom patches;
        patches (cylinder2);
    }

    {
        //- Slave side patch
        name            AMI4;
        patchInfo
        {
            type            cyclicAMI;
            matchTolerance  0.0001;
            neighbourPatch  AMI3;
            transform       noOrdering;
        }
        constructFrom patches;
        patches (cylinder2_slave);
    }
);


// ************************************************************************* //
