/*--------------------------------*- C++ -*----------------------------------*\
| =========                 |                                                 |
| \\      /  F ield         | OpenFOAM: The Open Source CFD Toolbox           |
|  \\    /   O peration     | Version:  2106                                  |
|   \\  /    A nd           | Website:  www.openfoam.com                      |
|    \\/     M anipulation  |                                                 |
\*---------------------------------------------------------------------------*/
FoamFile
{
    version     2.0;
    format      ascii;
    arch        "LSB;label=32;scalar=64";
    class       extendedFeatureEdgeMesh;
    location    "constant/extendedFeatureEdgeMesh";
    object      cylinder1S.extendedFeatureEdgeMesh;
}
// * * * * * * * * * * * * * * * * * * * * * * * * * * * * * * * * * * * * * //

// points

64
(
(0 -0.7 1)
(0.03901806 -0.7038429 1)
(0.03901806 -0.7038429 0.6)
(0 -0.7 0.6)
(0.07653669 -0.7152241 1)
(0.07653669 -0.7152241 0.6)
(0.111114 -0.7337061 1)
(0.111114 -0.7337061 0.6)
(0.1414214 -0.7585786 1)
(0.1414214 -0.7585786 0.6)
(0.1662939 -0.788886 1)
(0.1662939 -0.788886 0.6)
(0.1847759 -0.8234633 1)
(0.1847759 -0.8234633 0.6)
(0.1961571 -0.8609819 1)
(0.1961571 -0.8609819 0.6)
(0.2 -0.9 1)
(0.2 -0.9 0.6)
(0.1961571 -0.939018 1)
(0.1961571 -0.939018 0.6)
(0.1847759 -0.9765366 1)
(0.1847759 -0.9765366 0.6)
(0.1662939 -1.011114 1)
(0.1662939 -1.011114 0.6)
(0.1414214 -1.041421 1)
(0.1414214 -1.041421 0.6)
(0.111114 -1.066294 1)
(0.111114 -1.066294 0.6)
(0.0765367 -1.084776 1)
(0.0765367 -1.084776 0.6)
(0.03901806 -1.096157 1)
(0.03901806 -1.096157 0.6)
(-1.748456e-08 -1.1 1)
(-1.748456e-08 -1.1 0.6)
(-0.03901805 -1.096157 1)
(-0.03901805 -1.096157 0.6)
(-0.07653669 -1.084776 1)
(-0.07653669 -1.084776 0.6)
(-0.1111141 -1.066294 1)
(-0.1111141 -1.066294 0.6)
(-0.1414213 -1.041421 1)
(-0.1414213 -1.041421 0.6)
(-0.1662939 -1.011114 1)
(-0.1662939 -1.011114 0.6)
(-0.1847759 -0.9765367 1)
(-0.1847759 -0.9765367 0.6)
(-0.1961571 -0.9390181 1)
(-0.1961571 -0.9390181 0.6)
(-0.2 -0.9 1)
(-0.2 -0.9 0.6)
(-0.1961571 -0.8609819 1)
(-0.1961571 -0.8609819 0.6)
(-0.1847759 -0.8234633 1)
(-0.1847759 -0.8234633 0.6)
(-0.1662939 -0.788886 1)
(-0.1662939 -0.788886 0.6)
(-0.1414214 -0.7585787 1)
(-0.1414214 -0.7585787 0.6)
(-0.1111141 -0.7337061 1)
(-0.1111141 -0.7337061 0.6)
(-0.07653669 -0.715224 1)
(-0.07653669 -0.715224 0.6)
(-0.03901805 -0.7038429 1)
(-0.03901805 -0.7038429 0.6)
)

// edges

64
(
(0 1)
(2 3)
(1 4)
(5 2)
(4 6)
(7 5)
(6 8)
(9 7)
(8 10)
(11 9)
(10 12)
(13 11)
(12 14)
(15 13)
(14 16)
(17 15)
(16 18)
(19 17)
(18 20)
(21 19)
(20 22)
(23 21)
(22 24)
(25 23)
(24 26)
(27 25)
(26 28)
(29 27)
(28 30)
(31 29)
(30 32)
(33 31)
(32 34)
(35 33)
(34 36)
(37 35)
(36 38)
(39 37)
(38 40)
(41 39)
(40 42)
(43 41)
(42 44)
(45 43)
(44 46)
(47 45)
(46 48)
(49 47)
(48 50)
(51 49)
(50 52)
(53 51)
(52 54)
(55 53)
(54 56)
(57 55)
(56 58)
(59 57)
(58 60)
(61 59)
(62 60)
(0 62)
(63 61)
(3 63)
)

// concaveStart mixedStart nonFeatureStart
0 0 0
// internalStart flatStart openStart multipleStart
64 64 64 64
// normals

96
(
(0.09801729 0.9951847 -0)
(0 0 1)
(0.09801729 0.9951847 0)
(0 0 -1)
(0.2902846 0.9569404 -0)
(0.2902846 0.9569404 0)
(0 0 -1)
(0.4713965 0.8819214 -0)
(0 0 1)
(0.4713965 0.8819214 0)
(0.6343928 0.7730108 -0)
(0.6343928 0.7730108 0)
(0 0 -1)
(0.773011 0.6343926 -0)
(0 0 1)
(0.773011 0.6343926 0)
(0.8819213 0.4713966 -0)
(0.8819213 0.4713966 0)
(0 0 -1)
(0.9569402 0.2902851 -0)
(0 0 1)
(0.9569402 0.2902851 0)
(0.9951847 0.09801722 -0)
(0.9951847 0.09801722 0)
(0 0 -1)
(0.9951847 -0.09801736 0)
(0 0 1)
(0.9951847 -0.09801736 0)
(0.9569404 -0.2902843 0)
(0.9569404 -0.2902843 0)
(0 0 -1)
(0.8819213 -0.4713966 0)
(0 0 1)
(0.8819213 -0.4713966 0)
(0.7730102 -0.6343936 0)
(0.7730102 -0.6343936 0)
(0 0 -1)
(0.6343946 -0.7730094 0)
(0 0 1)
(0.6343946 -0.7730094 0)
(0.4713967 -0.8819213 0)
(0.4713967 -0.8819213 0)
(0 0 -1)
(0.2902845 -0.9569404 0)
(0 0 1)
(0.2902845 -0.9569404 0)
(0.09801726 -0.9951847 0)
(0.09801726 -0.9951847 0)
(-0 0 -1)
(-0.09801737 -0.9951847 0)
(0 0 1)
(-0.09801737 -0.9951847 0)
(-0.2902846 -0.9569404 0)
(-0.2902846 -0.9569404 0)
(0 0 -1)
(-0.4713986 -0.8819202 0)
(0 0 1)
(-0.4713986 -0.8819202 0)
(-0.6343932 -0.7730105 0)
(-0.6343932 -0.7730105 0)
(0 0 -1)
(-0.7730092 -0.6343948 0)
(0 0 1)
(-0.7730092 -0.6343948 0)
(-0.8819215 -0.4713963 0)
(-0.8819215 -0.4713963 0)
(0 0 -1)
(-0.9569403 -0.2902847 0)
(0 0 1)
(-0.9569403 -0.2902847 0)
(-0.9951847 -0.09801722 0)
(-0.9951847 -0.09801722 0)
(0 0 -1)
(-0.9951847 0.09801722 0)
(0 0 1)
(-0.9951847 0.09801722 0)
(-0.9569402 0.290285 0)
(-0.9569402 0.290285 0)
(0 0 -1)
(-0.8819214 0.4713964 0)
(0 0 1)
(-0.8819214 0.4713964 0)
(-0.7730102 0.6343936 0)
(-0.7730102 0.6343936 0)
(0 0 -1)
(-0.6343937 0.7730101 0)
(0 0 1)
(-0.6343937 0.7730101 0)
(-0.4713975 0.8819209 0)
(-0.4713975 0.8819209 0)
(0 0 -1)
(0 0 1)
(-0.2902845 0.9569404 0)
(-0.09801583 0.9951849 0)
(-0.2902845 0.9569404 0)
(-0.09801583 0.9951849 0)
)

// normal volume types

96
(
0
0
0
0
0
0
0
0
0
0
0
0
0
0
0
0
0
0
0
0
0
0
0
0
0
0
0
0
0
0
0
0
0
0
0
0
0
0
0
0
0
0
0
0
0
0
0
0
0
0
0
0
0
0
0
0
0
0
0
0
0
0
0
0
0
0
0
0
0
0
0
0
0
0
0
0
0
0
0
0
0
0
0
0
0
0
0
0
0
0
0
0
0
0
0
0
)

// normalDirections

64
(
2(1 -1)
2(1 -1)
2(1 -1)
2(1 -1)
2(1 -1)
2(1 -1)
2(1 -1)
2(1 -1)
2(1 -1)
2(1 -1)
2(1 -1)
2(1 -1)
2(1 -1)
2(1 -1)
2(1 -1)
2(1 -1)
2(1 -1)
2(1 -1)
2(1 -1)
2(1 -1)
2(1 -1)
2(1 -1)
2(1 -1)
2(1 -1)
2(1 -1)
2(1 -1)
2(1 -1)
2(1 -1)
2(1 -1)
2(1 -1)
2(1 -1)
2(1 -1)
2(1 -1)
2(1 -1)
2(1 -1)
2(1 -1)
2(1 -1)
2(1 -1)
2(1 -1)
2(1 -1)
2(1 -1)
2(1 -1)
2(1 -1)
2(1 -1)
2(1 -1)
2(1 -1)
2(1 -1)
2(1 -1)
2(1 -1)
2(1 -1)
2(1 -1)
2(1 -1)
2(1 -1)
2(1 -1)
2(1 -1)
2(1 -1)
2(1 -1)
2(1 -1)
2(1 -1)
2(1 -1)
2(1 -1)
2(1 -1)
2(1 -1)
2(1 -1)
)

// edgeNormals

64
(
2(0 1)
2(2 3)
2(4 1)
2(5 6)
2(7 8)
2(9 6)
2(10 8)
2(11 12)
2(13 14)
2(15 12)
2(16 14)
2(17 18)
2(19 20)
2(21 18)
2(22 20)
2(23 24)
2(25 26)
2(27 24)
2(28 26)
2(29 30)
2(31 32)
2(33 30)
2(34 32)
2(35 36)
2(37 38)
2(39 36)
2(40 38)
2(41 42)
2(43 44)
2(45 42)
2(46 44)
2(47 48)
2(49 50)
2(51 48)
2(52 50)
2(53 54)
2(55 56)
2(57 54)
2(58 56)
2(59 60)
2(61 62)
2(63 60)
2(64 62)
2(65 66)
2(67 68)
2(69 66)
2(70 68)
2(71 72)
2(73 74)
2(75 72)
2(76 74)
2(77 78)
2(79 80)
2(81 78)
2(82 80)
2(83 84)
2(85 86)
2(87 84)
2(88 86)
2(89 90)
2(91 92)
2(91 93)
2(94 90)
2(95 3)
)

// featurePointNormals
0()
// featurePointEdges
0()
// regionEdges
0()


// ************************************************************************* //
