/*--------------------------------*- C++ -*----------------------------------*\
| =========                 |                                                 |
| \\      /  F ield         | OpenFOAM: The Open Source CFD Toolbox           |
|  \\    /   O peration     | Version:  2106                                  |
|   \\  /    A nd           | Website:  www.openfoam.com                      |
|    \\/     M anipulation  |                                                 |
\*---------------------------------------------------------------------------*/
FoamFile
{
    version     2.0;
    format      ascii;
    arch        "LSB;label=32;scalar=64";
    class       extendedFeatureEdgeMesh;
    location    "constant/extendedFeatureEdgeMesh";
    object      outletS.extendedFeatureEdgeMesh;
}
// * * * * * * * * * * * * * * * * * * * * * * * * * * * * * * * * * * * * * //

// points
10((-1.5 0.2142857 0.28) (-1.5 0.2142857 0.3733333) (-1.5 -0.2142857 0.28) (-1.5 -0.2142857 0.3733333) (-1.5 0.07142857 0.28) (-1.5 0.2142857 0.3266667) (-1.5 0.07142857 0.3733333) (-1.5 -0.07142858 0.28) (-1.5 -0.07142858 0.3733333) (-1.5 -0.2142857 0.3266667))
// edges
10((0 4) (5 0) (6 1) (1 5) (4 7) (8 6) (7 2) (2 9) (9 3) (3 8))
// concaveStart mixedStart nonFeatureStart
0 0 4
// internalStart flatStart openStart multipleStart
0 0 0 10
// normals
8{(-1 0 0)}
// normal volume types

8
(
0
0
0
0
0
0
0
0
)

// normalDirections

10
(
1(1)
1(1)
1(1)
1(1)
1(1)
1(1)
1(1)
1(1)
1(1)
1(1)
)

// edgeNormals

10
(
1(0)
1(1)
1(2)
1(2)
1(3)
1(4)
1(5)
1(5)
1(6)
1(7)
)

// featurePointNormals

4
(
1(0)
1(2)
1(5)
1(6)
)

// featurePointEdges

4
(
2(0 1)
2(2 3)
2(6 7)
2(8 9)
)

// regionEdges
10(0 1 2 3 4 5 6 7 8 9)


// ************************************************************************* //
