/*--------------------------------*- C++ -*----------------------------------*\
| =========                 |                                                 |
| \\      /  F ield         | OpenFOAM: The Open Source CFD Toolbox           |
|  \\    /   O peration     | Version:  2106                                  |
|   \\  /    A nd           | Website:  www.openfoam.com                      |
|    \\/     M anipulation  |                                                 |
\*---------------------------------------------------------------------------*/
FoamFile
{
    version     2.0;
    format      ascii;
    arch        "LSB;label=32;scalar=64";
    class       extendedFeatureEdgeMesh;
    location    "constant/extendedFeatureEdgeMesh";
    object      twoFansY12.extendedFeatureEdgeMesh;
}
// * * * * * * * * * * * * * * * * * * * * * * * * * * * * * * * * * * * * * //

// points

168
(
(0.02938926 -0.8595491 0.775)
(0.02938926 -0.8595491 0.825)
(0.04755283 -0.8845491 0.825)
(0.04755283 -0.8845491 0.775)
(0.04755282 -0.9154508 0.775)
(0.04755282 -0.9154508 0.825)
(0.02938926 -0.9404508 0.825)
(0.02938926 -0.9404508 0.775)
(-4.371139e-09 -0.95 0.775)
(-4.371139e-09 -0.95 0.825)
(-0.02938927 -0.9404508 0.825)
(-0.02938927 -0.9404508 0.775)
(-0.04755282 -0.9154508 0.775)
(-0.04755282 -0.9154508 0.825)
(-0.04755282 -0.8845491 0.825)
(-0.04755282 -0.8845491 0.775)
(-0.02938927 -0.8595491 0.775)
(-0.02938927 -0.8595491 0.825)
(0 -0.85 0.825)
(0 -0.85 0.775)
(0.02938926 0.9404508 0.775)
(0.02938926 0.9404508 0.825)
(0.04755283 0.9154508 0.825)
(0.04755283 0.9154508 0.775)
(0.04755282 0.8845491 0.775)
(0.04755282 0.8845491 0.825)
(0.02938926 0.8595491 0.825)
(0.02938926 0.8595491 0.775)
(-4.371139e-09 0.85 0.775)
(-4.371139e-09 0.85 0.825)
(-0.02938927 0.8595491 0.825)
(-0.02938927 0.8595491 0.775)
(-0.04755282 0.8845491 0.775)
(-0.04755282 0.8845491 0.825)
(-0.04755282 0.9154508 0.825)
(-0.04755282 0.9154508 0.775)
(-0.02938927 0.9404508 0.775)
(-0.02938927 0.9404508 0.825)
(0 0.95 0.825)
(0 0.95 0.775)
(-0.03515751 -0.8674884 0.7848135)
(-0.04178458 -0.8766098 0.7848135)
(-0.1065059 -0.829587 0.7848135)
(-0.09987888 -0.8204656 0.7848135)
(0.009333218 -0.8530325 0.7848135)
(0.009333218 -0.8530325 0.8151865)
(0.03405456 -0.776948 0.8151865)
(0.03405456 -0.776948 0.7848135)
(0.009333211 -0.9469674 0.7848135)
(0.02005604 -0.9434834 0.7848135)
(0.04477738 -1.019568 0.7848135)
(0.03405454 -1.023052 0.7848135)
(-0.04178458 -0.8766098 0.8151865)
(-0.1065059 -0.829587 0.8151865)
(-0.0238106 -0.9327725 0.825)
(-4.073729e-09 -0.940509 0.825)
(-4.146146e-09 -0.940509 0.819)
(-0.0238106 -0.9327725 0.819)
(0.02005604 -0.8565166 0.8151865)
(0.04477739 -0.780432 0.8151865)
(2.974098e-10 -0.859491 0.825)
(0.0238106 -0.8672275 0.825)
(0.03852636 -0.887482 0.825)
(0.03852636 -0.912518 0.825)
(0.0238106 -0.9327725 0.825)
(-0.03852636 -0.912518 0.825)
(-0.03852636 -0.887482 0.825)
(-0.0238106 -0.8672275 0.825)
(0.03852636 -0.887482 0.819)
(0.03852636 -0.912518 0.819)
(-0.0238106 -0.8672275 0.819)
(2.249929e-10 -0.859491 0.819)
(-0.03852636 -0.912518 0.819)
(0.0238106 -0.9327725 0.819)
(0.0238106 -0.8672275 0.819)
(-0.03852636 -0.887482 0.819)
(0.02005604 -0.8565166 0.7848135)
(0.04755283 -0.8943626 0.8151865)
(0.04755283 -0.8943626 0.7848135)
(0.04755282 -0.9056373 0.7848135)
(0.04755282 -0.9056373 0.8151865)
(0.02005604 -0.9434834 0.8151865)
(0.009333211 -0.9469674 0.8151865)
(-0.03515751 -0.9325115 0.8151865)
(-0.03515751 -0.9325115 0.7848135)
(-0.04178458 -0.9233902 0.7848135)
(-0.04178458 -0.9233902 0.8151865)
(-0.03515751 -0.8674884 0.8151865)
(0.04477739 -0.780432 0.7848135)
(0.1275528 -0.9056373 0.8151865)
(0.1275528 -0.9056373 0.7848135)
(-0.1065059 -0.970413 0.8151865)
(-0.1031924 -0.9749736 0.8151865)
(-0.09987888 -0.9795343 0.8151865)
(0.1275528 -0.8943627 0.8151865)
(-0.09987888 -0.9795343 0.7848135)
(-0.1031924 -0.9749736 0.7848135)
(-0.1065059 -0.970413 0.7848135)
(0.03405454 -1.023052 0.8151865)
(0.04477738 -1.019568 0.8151865)
(-0.09987888 -0.8204656 0.8151865)
(0.1275528 -0.8943627 0.7848135)
(-0.03515751 0.9325115 0.7848135)
(-0.04178458 0.9233902 0.7848135)
(-0.1065059 0.970413 0.7848135)
(-0.09987888 0.9795343 0.7848135)
(0.009333218 0.9469674 0.7848135)
(0.009333218 0.9469674 0.8151865)
(0.03405456 1.023052 0.8151865)
(0.03405456 1.023052 0.7848135)
(0.009333211 0.8530325 0.7848135)
(0.02005604 0.8565166 0.7848135)
(0.04477738 0.780432 0.7848135)
(0.03405454 0.776948 0.7848135)
(-0.04178458 0.9233902 0.8151865)
(-0.1065059 0.970413 0.8151865)
(-0.0238106 0.8672275 0.825)
(-4.073729e-09 0.859491 0.825)
(-4.146146e-09 0.859491 0.819)
(-0.0238106 0.8672275 0.819)
(0.02005604 0.9434834 0.8151865)
(0.04477739 1.019568 0.8151865)
(2.974098e-10 0.940509 0.825)
(0.0238106 0.9327725 0.825)
(0.03852636 0.912518 0.825)
(0.03852636 0.887482 0.825)
(0.0238106 0.8672275 0.825)
(-0.03852636 0.887482 0.825)
(-0.03852636 0.912518 0.825)
(-0.0238106 0.9327725 0.825)
(0.03852636 0.912518 0.819)
(0.03852636 0.887482 0.819)
(-0.0238106 0.9327725 0.819)
(2.249929e-10 0.940509 0.819)
(-0.03852636 0.887482 0.819)
(0.0238106 0.8672275 0.819)
(0.0238106 0.9327725 0.819)
(-0.03852636 0.912518 0.819)
(0.02005604 0.9434834 0.7848135)
(0.04755283 0.9056373 0.8151865)
(0.04755283 0.9056373 0.7848135)
(0.04755282 0.8943626 0.7848135)
(0.04755282 0.8943626 0.8151865)
(0.02005604 0.8565166 0.8151865)
(0.009333211 0.8530325 0.8151865)
(-0.03515751 0.8674884 0.8151865)
(-0.03515751 0.8674884 0.7848135)
(-0.04178458 0.8766098 0.7848135)
(-0.04178458 0.8766098 0.8151865)
(-0.03515751 0.9325115 0.8151865)
(0.04477739 1.019568 0.7848135)
(0.1275528 0.8943626 0.8151865)
(0.1275528 0.8943626 0.7848135)
(-0.1065059 0.829587 0.8151865)
(-0.1031924 0.8250263 0.8151865)
(-0.09987888 0.8204656 0.8151865)
(0.1275528 0.9056373 0.8151865)
(-0.09987888 0.8204656 0.7848135)
(-0.1031924 0.8250263 0.7848135)
(-0.1065059 0.829587 0.7848135)
(0.03405454 0.776948 0.8151865)
(0.04477738 0.780432 0.8151865)
(-0.09987888 0.9795343 0.8151865)
(0.1275528 0.9056373 0.7848135)
(-0.1065059 -0.970413 0.8)
(-0.09987888 0.8204656 0.8)
(-0.1065059 0.829587 0.8)
(-0.09987888 -0.9795343 0.8)
)

// edges

310
(
(41 42)
(43 40)
(1 2)
(0 1)
(3 0)
(2 3)
(45 46)
(47 44)
(5 6)
(4 5)
(7 4)
(6 7)
(49 50)
(51 48)
(9 10)
(8 9)
(11 8)
(10 11)
(52 53)
(13 14)
(12 13)
(15 12)
(14 15)
(58 59)
(17 18)
(16 17)
(19 16)
(18 19)
(19 0)
(3 4)
(7 8)
(11 12)
(15 16)
(1 18)
(5 2)
(9 6)
(13 10)
(17 14)
(82 98)
(99 81)
(76 88)
(87 100)
(77 94)
(101 78)
(83 93)
(95 84)
(90 79)
(97 85)
(80 89)
(86 91)
(91 164)
(164 97)
(103 104)
(105 102)
(21 22)
(20 21)
(23 20)
(22 23)
(107 108)
(109 106)
(25 26)
(24 25)
(27 24)
(26 27)
(111 112)
(113 110)
(29 30)
(28 29)
(31 28)
(30 31)
(114 115)
(33 34)
(32 33)
(35 32)
(34 35)
(120 121)
(37 38)
(36 37)
(39 36)
(38 39)
(39 20)
(23 24)
(27 28)
(31 32)
(35 36)
(21 38)
(25 22)
(29 26)
(33 30)
(37 34)
(144 160)
(161 143)
(138 150)
(149 162)
(139 156)
(163 140)
(145 155)
(157 146)
(152 141)
(159 147)
(142 151)
(148 153)
(157 165)
(165 155)
(153 166)
(166 159)
(40 41)
(44 45)
(48 49)
(41 52)
(55 56)
(57 54)
(45 58)
(62 68)
(69 63)
(67 70)
(71 60)
(72 65)
(73 64)
(74 61)
(75 66)
(44 76)
(76 58)
(77 78)
(78 79)
(80 77)
(79 80)
(81 49)
(82 81)
(48 82)
(83 84)
(84 85)
(86 83)
(85 86)
(87 52)
(40 87)
(92 93)
(96 97)
(95 167)
(167 93)
(102 103)
(106 107)
(110 111)
(103 114)
(117 118)
(119 116)
(107 120)
(124 130)
(131 125)
(129 132)
(133 122)
(134 127)
(135 126)
(136 123)
(137 128)
(106 138)
(138 120)
(139 140)
(140 141)
(142 139)
(141 142)
(143 111)
(144 143)
(110 144)
(145 146)
(146 147)
(148 145)
(147 148)
(149 114)
(102 149)
(154 155)
(158 159)
(56 57)
(68 69)
(70 71)
(57 72)
(69 73)
(71 74)
(72 75)
(73 56)
(74 68)
(75 70)
(118 119)
(130 131)
(132 133)
(119 134)
(131 135)
(133 136)
(134 137)
(135 118)
(136 130)
(137 132)
(42 43)
(46 47)
(50 51)
(53 42)
(54 55)
(59 46)
(60 61)
(61 62)
(62 63)
(63 64)
(64 55)
(54 65)
(65 66)
(66 67)
(67 60)
(88 47)
(47 88)
(47 47)
(88 88)
(89 90)
(90 89)
(90 90)
(89 89)
(91 92)
(92 91)
(91 91)
(93 91)
(91 93)
(93 93)
(94 89)
(89 94)
(94 94)
(95 96)
(96 95)
(95 95)
(97 95)
(95 97)
(97 97)
(98 99)
(88 59)
(100 53)
(51 98)
(94 101)
(43 100)
(93 95)
(101 90)
(97 91)
(99 50)
(99 99)
(50 50)
(59 59)
(46 46)
(53 53)
(42 42)
(51 51)
(43 43)
(98 98)
(100 100)
(101 101)
(104 105)
(108 109)
(112 113)
(115 104)
(116 117)
(121 108)
(122 123)
(123 124)
(124 125)
(125 126)
(126 117)
(116 127)
(127 128)
(128 129)
(129 122)
(150 109)
(109 150)
(109 109)
(150 150)
(151 152)
(152 151)
(152 152)
(151 151)
(153 154)
(154 153)
(153 153)
(155 153)
(153 155)
(155 155)
(156 151)
(151 156)
(156 156)
(157 158)
(158 157)
(157 157)
(159 157)
(157 159)
(159 159)
(160 161)
(150 121)
(162 115)
(113 160)
(156 163)
(105 162)
(155 157)
(163 152)
(159 153)
(161 112)
(161 161)
(112 112)
(121 121)
(108 108)
(115 115)
(104 104)
(113 113)
(105 105)
(160 160)
(162 162)
(163 163)
)

// concaveStart mixedStart nonFeatureStart
40 40 164
// internalStart flatStart openStart multipleStart
106 172 172 192
// normals

392
(
(0 0 -1)
(0 0 0)
(0 0 0)
(-0.8090164 0.587786 0)
(-0.9510566 0.3090167 0)
(0 0 0)
(0 0 0)
(0.309018 0.9510562 -0)
(0 0 -1)
(0 0 0)
(0 0 0)
(0.309013 -0.9510578 0)
(-0.5877852 -0.809017 0)
(0 0 0)
(0 0 0)
(-0.8090164 0.587786 0)
(0.309016 0.9510568 -3.729666e-09)
(-0 0 1)
(0 0 1)
(0 0 1)
(0 0 0)
(0 0 0)
(0 0 1)
(0 0 1)
(-0.309016 -0.9510568 3.729671e-09)
(0 0 1)
(-0.8090168 -0.5877855 0)
(0 0 1)
(0 0 1)
(-1 1.487975e-07 0)
(0 0 1)
(-0.8090169 0.5877854 0)
(0 0 1)
(-0.3090159 0.9510569 0)
(0 0 1)
(0 0 1)
(0.8090169 0.5877853 0)
(0 -0 1)
(1 0 0)
(0 0 1)
(0 0 1)
(0.8090169 -0.5877853 0)
(0 0 1)
(0.3090159 -0.9510569 0)
(0 0 0)
(0 0 0)
(0 0 -1)
(0.309018 0.9510562 0)
(0 0 0)
(0 0 0)
(0 0 0)
(0 -1 0)
(1 0 0)
(0 0 0)
(0 0 0)
(0 0 0)
(0 0 -1)
(-0.8090146 -0.5877885 0)
(0 0 0)
(0 0 0)
(0 0 1)
(0 0 0)
(0 0 0)
(0 0 1)
(1 0 -0)
(0 0 0)
(0 0 0)
(0 0 1)
(-0.8090183 -0.5877835 0)
(0 0 0)
(0 0 0)
(0 0 -1)
(0 0 0)
(0 0 1)
(0 0 0)
(0 0 0)
(0.309013 -0.9510578 0)
(0.9510566 -0.3090167 0)
(0 0 0)
(0 0 1)
(0 0 0)
(0 0 0)
(-0.9510567 -0.3090166 0)
(0 0 0)
(0 0 0)
(7.450581e-07 1 0)
(0 0 0)
(0.5877852 0.809017 0)
(0 0 0)
(0 0 0)
(0.5877852 -0.809017 0)
(0 0 0)
(0 0 -1)
(0 0 0)
(-0.5877852 0.809017 0)
(0 0 0)
(0.9510567 0.3090164 0)
(0 0 0)
(0 0 0)
(0 0 -1)
(0 0 0)
(0 0 0)
(-0.8090164 0.587786 0)
(-0.9510566 0.3090167 0)
(0 0 0)
(0 0 0)
(0.3090228 0.9510546 -0)
(0 0 -1)
(0 0 0)
(0 0 0)
(0.3090178 -0.9510563 0)
(-0.5877852 -0.809017 0)
(0 0 0)
(0 0 0)
(-0.8090164 0.587786 0)
(0.309016 0.9510568 -3.729666e-09)
(-0 0 1)
(0 0 1)
(0 0 1)
(0 0 0)
(0 0 0)
(0 0 1)
(0 0 1)
(-0.309016 -0.9510568 3.729671e-09)
(0 0 1)
(-0.8090168 -0.5877855 0)
(0 0 1)
(0 0 1)
(-1 1.487975e-07 0)
(0 0 1)
(-0.8090169 0.5877854 0)
(0 0 1)
(-0.3090159 0.9510569 0)
(0 0 1)
(0 0 1)
(0.8090169 0.5877853 0)
(0 -0 1)
(1 0 0)
(0 0 1)
(0 0 1)
(0.8090169 -0.5877853 0)
(0 0 1)
(0.3090159 -0.9510569 0)
(0 0 0)
(0 0 0)
(0 0 -1)
(0.3090228 0.9510546 0)
(0 0 0)
(0 0 0)
(0 0 0)
(0 -1 0)
(1 0 0)
(0 0 0)
(0 0 0)
(0 0 0)
(0 0 -1)
(-0.8090146 -0.5877885 0)
(0 0 0)
(0 0 0)
(0 0 1)
(0 0 0)
(0 0 0)
(0 0 1)
(1 0 -0)
(0 0 0)
(0 0 0)
(0 0 1)
(-0.8090183 -0.5877835 0)
(0 0 0)
(0 0 0)
(0 0 -1)
(0 0 0)
(0 0 1)
(0 0 0)
(0 0 0)
(0.3090178 -0.9510563 0)
(0.9510565 -0.3090169 0)
(0 0 0)
(0 0 1)
(0 0 0)
(0 0 0)
(-0.9510567 -0.3090166 0)
(0 0 0)
(0 0 0)
(7.450581e-07 1 0)
(0 0 0)
(0.5877852 0.809017 0)
(0 0 0)
(0 0 0)
(0.5877852 -0.809017 0)
(0 0 0)
(0 0 -1)
(0 0 0)
(-0.5877852 0.809017 0)
(0 0 0)
(0.9510567 0.3090166 0)
(0 0 0)
(0 0 0)
(0.309016 0.9510568 0)
(-1 1.487975e-07 0)
(0.3090159 -0.9510569 -3.729671e-09)
(0.8090169 0.5877853 0)
(-0.8090169 0.5877854 0)
(-0.309016 -0.9510569 -0)
(1 0 0)
(-0.3090159 0.9510569 3.729665e-09)
(-0.8090168 -0.5877855 -0)
(0.8090169 -0.5877853 0)
(0.309016 0.9510568 0)
(-1 1.487975e-07 0)
(0.3090159 -0.9510569 -3.729671e-09)
(0.8090169 0.5877853 0)
(-0.8090169 0.5877854 0)
(-0.309016 -0.9510569 -0)
(1 0 0)
(-0.3090159 0.9510569 3.729665e-09)
(-0.8090168 -0.5877855 -0)
(0.8090169 -0.5877853 0)
(-0 0 -1)
(0.5877852 0.809017 0)
(0.8090174 0.5877848 -0)
(-0 0 1)
(0.3090132 0.9510577 0)
(0.8090174 0.5877848 0)
(0 0 -1)
(1 -0 0)
(-0.9510566 0.3090167 0)
(0 0 -1)
(0.8090174 -0.5877847 0)
(0 0 1)
(1 0 0)
(0.8090174 -0.5877847 0)
(0 0 -1)
(0.3090133 -0.9510577 0)
(0 0 -1)
(-0.9510567 -0.3090166 -0)
(-0.3090167 -0.9510566 0)
(0 0 1)
(0.3090188 -0.9510559 0)
(-0.3090167 -0.9510566 0)
(0 0 -1)
(-0.8090181 -0.5877838 0)
(-0.5877852 -0.809017 0)
(-1 0 0)
(0 0 1)
(-0.8090182 -0.5877837 0)
(-1 0 0)
(0 0 -1)
(-0.809018 0.5877839 0)
(-0 0 1)
(-0.3090167 0.9510566 0)
(0 -0 1)
(-0.809018 0.5877839 0)
(-0.3090167 0.9510566 0)
(0 0 -1)
(0.3090187 0.9510559 0)
(0.3090167 0.9510566 2.116907e-06)
(1 -1.20553e-07 -1.20553e-07)
(0.3090167 -0.9510566 3.575832e-06)
(-0.8090175 -0.5877846 9.60256e-07)
(-0.8090175 0.5877846 -8.554657e-07)
(-0 -0 1)
(0.3090167 0.9510566 -3.65957e-06)
(-0 0 1)
(1 -1.20553e-07 -1.20553e-07)
(0 0 1)
(0.3090167 -0.9510566 -2.209634e-06)
(0 0 1)
(-0.8090175 -0.5877846 1.113811e-06)
(0 -0 1)
(-0.8090175 0.5877846 -8.554657e-07)
(0 0 1)
(0.9510567 0.3090164 -0)
(0.9510566 -0.3090167 0)
(0 -0 1)
(7.450581e-07 1 -0)
(0 0 -1)
(0.5877852 -0.809017 0)
(0 -0 -1)
(0 -1 0)
(-0.5877852 0.809017 0)
(0 0 1)
(0 0 1)
(-0.8090146 -0.5877885 -0)
(-0 0 -1)
(0.5877852 0.809017 0)
(0.8090174 0.5877848 -0)
(-0 0 1)
(0.3090132 0.9510577 0)
(0.8090174 0.5877848 0)
(0 0 -1)
(1 -0 0)
(-0.9510566 0.3090167 0)
(0 0 -1)
(0.8090174 -0.5877847 0)
(0 0 1)
(1 0 0)
(0.8090174 -0.5877847 0)
(0 0 -1)
(0.3090133 -0.9510577 0)
(0 0 -1)
(-0.9510567 -0.3090166 -0)
(-0.3090167 -0.9510566 0)
(0 0 1)
(0.3090188 -0.9510559 0)
(-0.3090167 -0.9510566 0)
(0 0 -1)
(-0.8090181 -0.5877838 0)
(-0.5877852 -0.809017 0)
(-1 0 0)
(0 0 1)
(-0.8090182 -0.5877837 0)
(-1 0 0)
(0 0 -1)
(-0.809018 0.5877839 0)
(-0 0 1)
(-0.3090167 0.9510566 0)
(0 -0 1)
(-0.809018 0.5877839 0)
(-0.3090167 0.9510566 0)
(0 0 -1)
(0.3090187 0.9510559 0)
(0.3090167 0.9510566 2.116907e-06)
(1 -1.20553e-07 -1.20553e-07)
(0.3090167 -0.9510566 3.575832e-06)
(-0.8090175 -0.5877846 9.60256e-07)
(-0.8090175 0.5877846 -8.554657e-07)
(-0 -0 1)
(0.3090167 0.9510566 -3.65957e-06)
(-0 0 1)
(1 -1.20553e-07 -1.20553e-07)
(0 0 1)
(0.3090167 -0.9510566 -2.209634e-06)
(0 0 1)
(-0.8090175 -0.5877846 1.113811e-06)
(0 -0 1)
(-0.8090175 0.5877846 -8.554657e-07)
(0 0 1)
(0.9510567 0.3090166 -0)
(0.9510565 -0.3090169 0)
(0 -0 1)
(7.450581e-07 1 -0)
(0 0 -1)
(0.5877852 -0.809017 0)
(0 -0 -1)
(0 -1 0)
(-0.5877852 0.809017 0)
(0 0 1)
(0 0 1)
(-0.8090183 -0.5877835 0)
(-0.8090146 -0.5877885 -0)
(-0.8090166 0.5877858 2.344678e-06)
(0.3090187 0.9510559 0)
(0.3090178 -0.9510562 1.020488e-06)
(-0.809018 0.5877839 0)
(0.309018 0.9510562 -7.741633e-07)
(0.309018 0.9510562 5.002312e-06)
(0.3090132 0.9510577 -0)
(1 0 0)
(1 -3.304116e-07 3.304116e-07)
(1 -3.304116e-07 3.304116e-07)
(1 0 -0)
(0.3090133 -0.9510577 0)
(0.3090178 -0.9510562 -4.764977e-06)
(0.3090188 -0.9510559 0)
(-0.8090181 -0.5877838 -0)
(-0.8090164 -0.587786 -2.9191e-06)
(-0.8090164 -0.587786 -2.765545e-06)
(-0.8090182 -0.5877837 0)
(-0.8090166 0.5877858 2.344678e-06)
(-0.809018 0.5877839 0)
(-0.8090183 -0.5877835 0)
(-0.8090166 0.5877858 2.344678e-06)
(0.3090187 0.9510559 0)
(0.3090178 -0.9510562 1.020488e-06)
(-0.809018 0.5877839 0)
(0.309018 0.9510562 -7.741633e-07)
(0.309018 0.9510562 5.002312e-06)
(0.3090132 0.9510577 -0)
(1 0 0)
(1 -3.304116e-07 3.304116e-07)
(1 -3.304116e-07 3.304116e-07)
(1 0 -0)
(0.3090133 -0.9510577 0)
(0.3090178 -0.9510562 -4.764977e-06)
(0.3090188 -0.9510559 0)
(-0.8090181 -0.5877838 -0)
(-0.8090164 -0.587786 -2.9191e-06)
(-0.8090164 -0.587786 -2.765545e-06)
(-0.8090182 -0.5877837 0)
(-0.8090166 0.5877858 2.344678e-06)
(-0.809018 0.5877839 0)
)

// normal volume types

392
(
0
0
0
0
0
0
0
0
0
0
0
0
0
0
0
0
0
0
0
0
0
0
0
0
0
0
0
0
0
0
0
0
0
0
0
0
0
0
0
0
0
0
0
0
0
0
0
0
0
0
0
0
0
0
0
0
0
0
0
0
0
0
0
0
0
0
0
0
0
0
0
0
0
0
0
0
0
0
0
0
0
0
0
0
0
0
0
0
0
0
0
0
0
0
0
0
0
0
0
0
0
0
0
0
0
0
0
0
0
0
0
0
0
0
0
0
0
0
0
0
0
0
0
0
0
0
0
0
0
0
0
0
0
0
0
0
0
0
0
0
0
0
0
0
0
0
0
0
0
0
0
0
0
0
0
0
0
0
0
0
0
0
0
0
0
0
0
0
0
0
0
0
0
0
0
0
0
0
0
0
0
0
0
0
0
0
0
0
0
0
0
0
0
0
0
0
0
0
0
0
0
0
0
0
0
0
0
0
0
0
0
0
0
0
0
0
0
0
0
0
0
0
0
0
0
0
0
0
0
0
0
0
0
0
0
0
0
0
0
0
0
0
0
0
0
0
0
0
0
0
0
0
0
0
0
0
0
0
0
0
0
0
0
0
0
0
0
0
0
0
0
0
0
0
0
0
0
0
0
0
0
0
0
0
0
0
0
0
0
0
0
0
0
0
0
0
0
0
0
0
0
0
0
0
0
0
0
0
0
0
0
0
0
0
0
0
0
0
0
0
0
0
0
0
0
0
0
0
0
0
0
0
0
0
0
0
0
0
0
0
0
0
0
0
0
0
0
0
0
0
0
0
0
0
0
0
0
0
0
0
0
0
0
0
0
0
0
0
0
0
0
0
0
0
0
0
0
0
0
0
0
0
0
0
0
0
0
0
0
0
0
0
)

// normalDirections

310
(
2(1 -1)
2(1 -1)
2(1 -1)
2(1 -1)
2(1 -1)
2(1 -1)
2(1 -1)
2(1 -1)
2(1 -1)
2(1 -1)
2(1 -1)
2(1 -1)
2(1 -1)
2(1 -1)
2(1 -1)
2(1 -1)
2(1 -1)
2(1 -1)
2(1 -1)
2(1 -1)
2(1 -1)
2(1 -1)
2(1 -1)
2(1 -1)
2(1 -1)
2(1 -1)
2(1 -1)
2(1 -1)
2(1 -1)
2(1 -1)
2(1 -1)
2(1 -1)
2(1 -1)
2(1 -1)
2(1 -1)
2(1 -1)
2(1 -1)
2(1 -1)
2(1 -1)
2(1 -1)
2(1 -1)
2(1 -1)
2(1 -1)
2(1 -1)
2(1 -1)
2(1 -1)
2(1 -1)
2(1 -1)
2(1 -1)
2(1 -1)
2(1 -1)
2(1 -1)
2(1 -1)
2(1 -1)
2(1 -1)
2(1 -1)
2(1 -1)
2(1 -1)
2(1 -1)
2(1 -1)
2(1 -1)
2(1 -1)
2(1 -1)
2(1 -1)
2(1 -1)
2(1 -1)
2(1 -1)
2(1 -1)
2(1 -1)
2(1 -1)
2(1 -1)
2(1 -1)
2(1 -1)
2(1 -1)
2(1 -1)
2(1 -1)
2(1 -1)
2(1 -1)
2(1 -1)
2(1 -1)
2(1 -1)
2(1 -1)
2(1 -1)
2(1 -1)
2(1 -1)
2(1 -1)
2(1 -1)
2(1 -1)
2(1 -1)
2(1 -1)
2(1 -1)
2(1 -1)
2(1 -1)
2(1 -1)
2(1 -1)
2(1 -1)
2(1 -1)
2(1 -1)
2(1 -1)
2(1 -1)
2(1 -1)
2(1 -1)
2(1 -1)
2(1 -1)
2(1 -1)
2(1 -1)
2(1 -1)
2(1 -1)
2(1 -1)
2(1 -1)
2(1 -1)
2(1 -1)
2(1 -1)
2(1 -1)
2(1 -1)
2(1 -1)
2(1 -1)
2(1 -1)
2(1 -1)
2(1 -1)
2(1 -1)
2(1 -1)
2(1 -1)
2(1 -1)
2(1 -1)
2(1 -1)
2(1 -1)
2(1 -1)
2(1 -1)
2(1 -1)
2(1 -1)
2(1 -1)
2(1 -1)
2(1 -1)
2(1 -1)
2(1 -1)
2(1 -1)
2(1 -1)
2(1 -1)
2(1 -1)
2(1 -1)
2(1 -1)
2(1 -1)
2(1 -1)
2(1 -1)
2(1 -1)
2(1 -1)
2(1 -1)
2(1 -1)
2(1 -1)
2(1 -1)
2(1 -1)
2(1 -1)
2(1 -1)
2(1 -1)
2(1 -1)
2(1 -1)
2(1 -1)
2(1 -1)
2(1 -1)
2(1 -1)
2(1 -1)
2(1 -1)
2(1 -1)
2(1 -1)
2(1 -1)
2(1 -1)
2(1 -1)
2(1 -1)
2(1 -1)
2(1 -1)
2(1 -1)
1(1)
1(1)
1(1)
1(1)
1(1)
1(1)
1(1)
1(1)
1(1)
1(1)
1(1)
1(1)
1(1)
1(1)
1(1)
1(1)
1(1)
1(1)
1(1)
1(1)
8(1 -1 -1 -1 -1 -1 -1 -1)
8(1 -1 -1 -1 -1 -1 -1 -1)
8(1 -1 -1 -1 -1 -1 -1 -1)
8(1 -1 -1 -1 -1 -1 -1 -1)
3(1 1 -1)
8(1 -1 -1 -1 -1 -1 -1 -1)
3(1 -1 -1)
3(1 -1 -1)
3(1 -1 -1)
3(1 -1 -1)
3(1 -1 -1)
3(1 -1 -1)
3(1 -1 -1)
3(1 -1 -1)
3(1 -1 -1)
7(-1 -1 -1 -1 -1 -1 1)
5(-1 -1 -1 1 -1)
3{-1}
3{-1}
7(-1 -1 -1 -1 -1 -1 1)
5(-1 -1 -1 1 -1)
3{-1}
3{-1}
3(-1 1 -1)
3(-1 -1 1)
3{-1}
3(-1 1 -1)
3(-1 -1 1)
3{-1}
7(-1 -1 -1 -1 -1 -1 1)
5(-1 -1 -1 1 -1)
3{-1}
3(-1 1 -1)
3(-1 -1 1)
3{-1}
3(-1 1 -1)
3(-1 -1 1)
3{-1}
8(1 -1 -1 -1 -1 -1 -1 -1)
8(1 -1 -1 -1 -1 -1 -1 -1)
8(1 -1 -1 -1 -1 -1 -1 -1)
8(1 -1 -1 -1 -1 -1 -1 -1)
8(1 -1 -1 -1 -1 -1 -1 -1)
8(1 -1 -1 -1 -1 -1 -1 -1)
8(1 -1 -1 -1 -1 -1 -1 -1)
8(1 -1 -1 -1 -1 -1 -1 -1)
8(1 -1 -1 -1 -1 -1 -1 -1)
8(1 -1 -1 -1 -1 -1 -1 -1)
3{-1}
3{-1}
3{-1}
3{-1}
3{-1}
3{-1}
3{-1}
3{-1}
3{-1}
3{-1}
3{-1}
8(1 -1 -1 -1 -1 -1 -1 -1)
8(1 -1 -1 -1 -1 -1 -1 -1)
8(1 -1 -1 -1 -1 -1 -1 -1)
8(1 -1 -1 -1 -1 -1 -1 -1)
3(1 1 -1)
8(1 -1 -1 -1 -1 -1 -1 -1)
3(1 -1 -1)
3(1 -1 -1)
3(1 -1 -1)
3(1 -1 -1)
3(1 -1 -1)
3(1 -1 -1)
3(1 -1 -1)
3(1 -1 -1)
3(1 -1 -1)
7(-1 -1 -1 -1 -1 -1 1)
5(-1 -1 -1 1 -1)
3{-1}
3{-1}
7(-1 -1 -1 -1 -1 -1 1)
5(-1 -1 -1 1 -1)
3{-1}
3{-1}
3(-1 1 -1)
3(-1 -1 1)
3{-1}
3(-1 1 -1)
3(-1 -1 1)
3{-1}
7(-1 -1 -1 -1 -1 -1 1)
5(-1 -1 -1 1 -1)
3{-1}
3(-1 1 -1)
3(-1 -1 1)
3{-1}
3(-1 1 -1)
3(-1 -1 1)
3{-1}
8(1 -1 -1 -1 -1 -1 -1 -1)
8(1 -1 -1 -1 -1 -1 -1 -1)
8(1 -1 -1 -1 -1 -1 -1 -1)
8(1 -1 -1 -1 -1 -1 -1 -1)
8(1 -1 -1 -1 -1 -1 -1 -1)
8(1 -1 -1 -1 -1 -1 -1 -1)
8(1 -1 -1 -1 -1 -1 -1 -1)
8(1 -1 -1 -1 -1 -1 -1 -1)
8(1 -1 -1 -1 -1 -1 -1 -1)
8(1 -1 -1 -1 -1 -1 -1 -1)
3{-1}
3{-1}
3{-1}
3{-1}
3{-1}
3{-1}
3{-1}
3{-1}
3{-1}
3{-1}
3{-1}
)

// edgeNormals

310
(
2(218 12)
2(0 219)
2(220 221)
2(220 222)
2(223 224)
2(223 225)
2(226 19)
2(4 227)
2(228 229)
2(228 230)
2(231 232)
2(231 233)
2(234 96)
2(8 235)
2(236 237)
2(236 238)
2(239 240)
2(239 241)
2(242 79)
2(243 244)
2(243 245)
2(246 247)
2(246 248)
2(249 77)
2(250 251)
2(250 252)
2(253 254)
2(253 255)
2(254 256)
2(224 257)
2(232 258)
2(240 259)
2(247 260)
2(261 262)
2(263 264)
2(265 266)
2(267 268)
2(269 270)
2(271 82)
2(73 272)
2(273 46)
2(274 87)
2(275 63)
2(85 276)
2(277 60)
2(90 278)
2(92 279)
2(71 280)
2(281 51)
2(282 94)
2(57 95)
2(283 95)
2(284 111)
2(99 285)
2(286 287)
2(286 288)
2(289 290)
2(289 291)
2(292 118)
2(103 293)
2(294 295)
2(294 296)
2(297 298)
2(297 299)
2(300 195)
2(107 301)
2(302 303)
2(302 304)
2(305 306)
2(305 307)
2(308 178)
2(309 310)
2(309 311)
2(312 313)
2(312 314)
2(315 176)
2(316 317)
2(316 318)
2(319 320)
2(319 321)
2(320 322)
2(290 323)
2(298 324)
2(306 325)
2(313 326)
2(327 328)
2(329 330)
2(331 332)
2(333 334)
2(335 336)
2(337 181)
2(172 338)
2(339 145)
2(340 186)
2(341 162)
2(184 342)
2(343 159)
2(189 344)
2(191 345)
2(170 346)
2(347 150)
2(348 193)
2(167 190)
2(349 190)
2(156 194)
2(350 194)
2(218 351)
2(226 352)
2(234 353)
2(242 354)
2(16 205)
2(198 36)
2(249 355)
2(29 206)
2(199 31)
2(43 207)
2(200 24)
2(201 38)
2(202 33)
2(203 26)
2(204 41)
2(356 227)
2(357 273)
2(358 275)
2(359 276)
2(360 281)
2(361 279)
2(362 272)
2(363 271)
2(364 235)
2(365 277)
2(366 278)
2(367 282)
2(368 280)
2(369 274)
2(370 219)
2(56 371)
2(67 283)
2(68 91)
2(371 91)
2(284 372)
2(292 373)
2(300 374)
2(308 375)
2(115 215)
2(208 135)
2(315 376)
2(128 216)
2(209 130)
2(142 217)
2(210 123)
2(211 137)
2(212 132)
2(213 125)
2(214 140)
2(377 293)
2(378 339)
2(379 341)
2(380 342)
2(381 347)
2(382 345)
2(383 338)
2(384 337)
2(385 301)
2(386 343)
2(387 344)
2(388 348)
2(389 346)
2(390 340)
2(391 285)
2(155 349)
2(166 350)
1(198)
1(199)
1(200)
1(201)
1(202)
1(203)
1(204)
1(205)
1(206)
1(207)
1(208)
1(209)
1(210)
1(211)
1(212)
1(213)
1(214)
1(215)
1(216)
1(217)
8(0 1 1 1 1 2 2 3)
8(4 5 5 5 5 6 6 7)
8(8 9 9 9 9 10 10 11)
8(12 13 13 13 13 14 14 15)
3(16 17 18)
8(19 20 20 20 20 21 21 7)
3(22 23 24)
3(25 23 26)
3(27 28 29)
3(30 28 31)
3(32 17 33)
3(34 35 36)
3(37 35 38)
3(39 40 41)
3(42 40 43)
7(44 45 45 45 45 46 47)
5(44 45 45 46 47)
3(44 6 6)
3(45 48 48)
7(49 50 50 50 50 51 52)
5(49 50 50 51 52)
3(49 53 53)
3(50 54 54)
3(55 56 57)
3(55 56 57)
3(55 58 58)
3(59 56 60)
3(59 56 60)
3(59 61 61)
7(54 62 62 62 62 63 64)
5(54 62 62 63 64)
3(62 65 65)
3(66 67 68)
3(66 67 68)
3(66 69 69)
3(70 67 71)
3(70 67 71)
3(70 72 72)
8(73 74 74 74 74 75 75 76)
8(77 48 48 48 48 78 78 47)
8(79 80 80 80 80 81 81 15)
8(82 83 83 83 83 84 84 11)
8(85 65 65 65 65 86 86 64)
8(87 88 88 88 88 89 89 3)
8(90 69 69 91 61 61 61 61)
8(92 93 93 93 93 53 53 52)
8(94 58 58 95 72 72 72 72)
8(96 97 97 97 97 98 98 76)
3(97 75 75)
3(98 9 9)
3(20 78 78)
3(21 5 5)
3(13 81 81)
3(14 1 1)
3(10 83 83)
3(2 88 88)
3(74 84 84)
3(80 89 89)
3(86 93 93)
8(99 100 100 100 100 101 101 102)
8(103 104 104 104 104 105 105 106)
8(107 108 108 108 108 109 109 110)
8(111 112 112 112 112 113 113 114)
3(115 116 117)
8(118 119 119 119 119 120 120 106)
3(121 122 123)
3(124 122 125)
3(126 127 128)
3(129 127 130)
3(131 116 132)
3(133 134 135)
3(136 134 137)
3(138 139 140)
3(141 139 142)
7(143 144 144 144 144 145 146)
5(143 144 144 145 146)
3(143 105 105)
3(144 147 147)
7(148 149 149 149 149 150 151)
5(148 149 149 150 151)
3(148 152 152)
3(149 153 153)
3(154 155 156)
3(154 155 156)
3(154 157 157)
3(158 155 159)
3(158 155 159)
3(158 160 160)
7(153 161 161 161 161 162 163)
5(153 161 161 162 163)
3(161 164 164)
3(165 166 167)
3(165 166 167)
3(165 168 168)
3(169 166 170)
3(169 166 170)
3(169 171 171)
8(172 173 173 173 173 174 174 175)
8(176 147 147 147 147 177 177 146)
8(178 179 179 179 179 180 180 114)
8(181 182 182 182 182 183 183 110)
8(184 164 164 164 164 185 185 163)
8(186 187 187 187 187 188 188 102)
8(189 168 168 190 160 160 160 160)
8(191 192 192 192 192 152 152 151)
8(193 157 157 194 171 171 171 171)
8(195 196 196 196 196 197 197 175)
3(196 174 174)
3(197 108 108)
3(119 177 177)
3(120 104 104)
3(112 180 180)
3(113 100 100)
3(109 182 182)
3(101 187 187)
3(173 183 183)
3(179 188 188)
3(185 192 192)
)

// featurePointNormals

164
(
3(220 222 224)
3(220 221 222)
3(220 221 225)
3(223 224 225)
3(228 230 232)
3(228 229 230)
3(228 229 233)
3(231 232 233)
3(236 238 240)
3(236 237 238)
3(236 237 241)
3(239 240 241)
3(243 245 247)
3(243 244 245)
3(243 244 248)
3(246 247 248)
3(250 252 254)
3(250 251 252)
3(250 251 255)
3(253 254 255)
3(286 288 290)
3(286 287 288)
3(286 287 291)
3(289 290 291)
3(294 296 298)
3(294 295 296)
3(294 295 299)
3(297 298 299)
3(302 304 306)
3(302 303 304)
3(302 303 307)
3(305 306 307)
3(309 311 313)
3(309 310 311)
3(309 310 314)
3(312 313 314)
3(316 318 320)
3(316 317 318)
3(316 317 321)
3(319 320 321)
3(0 219 351)
3(218 12 351)
7(218 12 1 2 3 13 14)
7(0 219 1 2 3 88 89)
3(4 227 352)
3(226 19 352)
7(226 19 5 6 7 20 21)
7(4 227 5 6 7 44 45)
3(8 235 353)
3(234 96 353)
7(234 96 9 10 11 97 98)
7(8 235 9 10 11 83 84)
3(242 79 354)
7(242 79 13 14 15 80 81)
3(198 36 17)
3(16 205 17)
2(16 205)
2(198 36)
3(249 77 355)
7(249 77 20 21 7 48 78)
3(200 24 22)
3(203 26 22)
3(29 206 25)
3(199 31 27)
3(202 33 30)
3(201 38 34)
3(204 41 37)
3(43 207 39)
2(29 206)
2(199 31)
2(43 207)
2(200 24)
2(201 38)
2(202 33)
2(203 26)
2(204 41)
3(273 46 356)
3(275 63 358)
3(85 276 358)
3(92 279 359)
3(281 51 360)
3(73 272 362)
3(271 82 363)
3(277 60 365)
3(90 278 365)
3(71 280 366)
3(282 94 367)
3(274 87 369)
7(273 46 44 45 47 48 78)
7(281 51 49 50 52 54 62)
7(92 279 49 50 52 53 93)
9(282 94 57 95 55 56 58 59 72)
3(56 371 55)
8(277 60 56 371 91 59 61 69)
7(275 63 54 62 64 65 86)
9(90 278 68 91 66 67 69 70 61)
3(67 283 66)
8(71 280 283 95 67 70 72 58)
7(271 82 74 75 76 83 84)
7(73 272 74 75 76 97 98)
7(274 87 80 81 15 88 89)
7(85 276 65 86 64 93 53)
3(99 285 372)
3(284 111 372)
7(284 111 100 101 102 112 113)
7(99 285 100 101 102 187 188)
3(103 293 373)
3(292 118 373)
7(292 118 104 105 106 119 120)
7(103 293 104 105 106 143 144)
3(107 301 374)
3(300 195 374)
7(300 195 108 109 110 196 197)
7(107 301 108 109 110 182 183)
3(308 178 375)
7(308 178 112 113 114 179 180)
3(208 135 116)
3(115 215 116)
2(115 215)
2(208 135)
3(315 176 376)
7(315 176 119 120 106 147 177)
3(210 123 121)
3(213 125 121)
3(128 216 124)
3(209 130 126)
3(212 132 129)
3(211 137 133)
3(214 140 136)
3(142 217 138)
2(128 216)
2(209 130)
2(142 217)
2(210 123)
2(211 137)
2(212 132)
2(213 125)
2(214 140)
3(339 145 377)
3(341 162 379)
3(184 342 379)
3(191 345 380)
3(347 150 381)
3(172 338 383)
3(337 181 384)
3(343 159 386)
3(189 344 386)
3(170 346 387)
3(348 193 388)
3(340 186 390)
7(339 145 143 144 146 147 177)
7(347 150 148 149 151 153 161)
7(191 345 148 149 151 152 192)
9(348 193 156 194 154 155 157 158 171)
3(155 349 154)
8(343 159 349 190 155 158 160 168)
7(341 162 153 161 163 164 185)
9(189 344 167 190 165 166 168 169 160)
3(166 350 165)
8(170 346 350 194 166 169 171 157)
7(337 181 173 174 175 182 183)
7(172 338 173 174 175 196 197)
7(340 186 179 180 114 187 188)
7(184 342 164 185 163 192 152)
)

// featurePointEdges

164
(
3(4 28 3)
3(2 33 3)
3(5 34 2)
3(4 29 5)
3(10 29 9)
3(8 34 9)
3(11 35 8)
3(10 30 11)
3(16 30 15)
3(14 35 15)
3(17 36 14)
3(16 31 17)
3(21 31 20)
3(19 36 20)
3(22 37 19)
3(21 32 22)
3(26 32 25)
3(24 37 25)
3(27 33 24)
3(26 28 27)
3(56 80 55)
3(54 85 55)
3(57 86 54)
3(56 81 57)
3(62 81 61)
3(60 86 61)
3(63 87 60)
3(62 82 63)
3(68 82 67)
3(66 87 67)
3(69 88 66)
3(68 83 69)
3(73 83 72)
3(71 88 72)
3(74 89 71)
3(73 84 74)
3(78 84 77)
3(76 89 77)
3(79 85 76)
3(78 80 79)
3(1 135 106)
3(0 109 106)
5(0 192 195 245 245)
5(1 192 235 247 247)
3(7 121 107)
3(6 112 107)
5(6 193 197 243 243)
6(7 193 207 208 209 209)
3(13 129 108)
3(108 127 12)
5(12 194 239 241 241)
5(13 194 233 246 246)
3(109 134 18)
5(18 195 232 244 244)
3(196 111 203)
3(196 110 202)
3(110 172 179)
3(111 172 175)
3(112 122 23)
5(23 197 231 242 242)
3(198 206 116)
3(198 199 119)
3(199 200 113)
3(200 201 114)
3(201 202 118)
3(203 204 117)
3(204 205 120)
3(205 206 115)
3(113 173 180)
3(114 173 176)
3(115 174 181)
3(116 174 177)
3(117 175 178)
3(118 176 179)
3(119 177 180)
3(120 178 181)
3(122 40 121)
3(125 42 123)
3(124 43 123)
3(126 46 124)
3(126 48 125)
3(128 39 127)
3(129 38 128)
3(132 44 130)
3(131 45 130)
3(133 47 131)
3(133 49 132)
3(135 41 134)
6(207 208 210 210 40 231)
7(211 212 214 214 221 222 48)
6(211 212 213 213 46 237)
9(215 216 217 217 218 219 49 238 50)
3(215 216 136)
8(218 219 220 220 136 44 236 139)
6(221 222 223 223 42 234)
9(224 225 226 226 227 228 45 236 138)
3(224 225 137)
8(227 228 229 229 137 47 238 51)
5(38 230 233 248 248)
5(39 230 239 240 240)
5(41 232 235 249 249)
5(43 234 237 250 250)
3(53 169 140)
3(52 143 140)
5(52 251 254 304 304)
5(53 251 294 306 306)
3(59 155 141)
3(58 146 141)
5(58 252 256 302 302)
6(59 252 266 267 268 268)
3(65 163 142)
3(142 161 64)
5(64 253 298 300 300)
5(65 253 292 305 305)
3(143 168 70)
5(70 254 291 303 303)
3(255 145 262)
3(255 144 261)
3(144 182 189)
3(145 182 185)
3(146 156 75)
5(75 256 290 301 301)
3(257 265 150)
3(257 258 153)
3(258 259 147)
3(259 260 148)
3(260 261 152)
3(262 263 151)
3(263 264 154)
3(264 265 149)
3(147 183 190)
3(148 183 186)
3(149 184 191)
3(150 184 187)
3(151 185 188)
3(152 186 189)
3(153 187 190)
3(154 188 191)
3(156 92 155)
3(159 94 157)
3(158 95 157)
3(160 98 158)
3(160 100 159)
3(162 91 161)
3(163 90 162)
3(166 96 164)
3(165 97 164)
3(167 99 165)
3(167 101 166)
3(169 93 168)
6(266 267 269 269 92 290)
7(270 271 273 273 280 281 100)
6(270 271 272 272 98 296)
9(274 275 276 276 277 278 101 297 104)
3(274 275 170)
8(277 278 279 279 170 96 295 103)
6(280 281 282 282 94 293)
9(283 284 285 285 286 287 97 295 102)
3(283 284 171)
8(286 287 288 288 171 99 297 105)
5(90 289 292 307 307)
5(91 289 298 299 299)
5(93 291 294 308 308)
5(95 293 296 309 309)
)

// regionEdges

138
(
192
193
194
195
196
197
198
199
200
201
202
203
204
205
206
207
208
209
210
211
212
213
214
215
216
217
218
219
220
221
222
223
224
225
226
227
228
229
230
231
232
233
234
235
236
237
238
239
240
241
242
243
244
245
246
247
248
249
250
251
252
253
254
255
256
257
258
259
260
261
262
263
264
265
266
267
268
269
270
271
272
273
274
275
276
277
278
279
280
281
282
283
284
285
286
287
288
289
290
291
292
293
294
295