/*--------------------------------*- C++ -*----------------------------------*\
| =========                 |                                                 |
| \\      /  F ield         | OpenFOAM: The Open Source CFD Toolbox           |
|  \\    /   O peration     | Version:  2106                                  |
|   \\  /    A nd           | Website:  www.openfoam.com                      |
|    \\/     M anipulation  |                                                 |
\*---------------------------------------------------------------------------*/
FoamFile
{
    version     2.0;
    format      ascii;
    arch        "LSB;label=32;scalar=64";
    class       extendedFeatureEdgeMesh;
    location    "constant/extendedFeatureEdgeMesh";
    object      wallsS.extendedFeatureEdgeMesh;
}
// * * * * * * * * * * * * * * * * * * * * * * * * * * * * * * * * * * * * * //

// points

188
(
(1.5 -1.5 0)
(-1.5 -1.5 0)
(-1.5 -1.214286 0)
(-1.5 -0.9285714 0)
(1.5 -1.071429 0)
(1.5 -1.357143 0)
(-1.5 -0.6428571 0)
(1.5 -0.7857143 0)
(-1.5 -0.3571429 0)
(1.5 -0.5 0)
(-1.5 -0.07142858 0)
(1.5 -0.2142857 0)
(-1.5 0.2142857 0)
(1.5 0.07142858 0)
(-1.5 0.5 0)
(1.5 0.3571429 0)
(-1.5 0.7857143 0)
(1.5 0.6428571 0)
(-1.5 1.071429 0)
(1.5 0.9285714 0)
(-1.5 1.357143 0)
(1.5 1.214286 0)
(-1.5 1.5 0)
(1.5 1.5 0)
(-1.5 -1.5 0.98)
(1.5 -1.5 0.98)
(1.5 -1.357143 0.98)
(1.5 -1.071429 0.98)
(-1.5 -0.9285714 0.98)
(-1.5 -1.214286 0.98)
(1.5 -0.7857143 0.98)
(-1.5 -0.6428571 0.98)
(1.5 -0.5 0.98)
(-1.5 -0.3571429 0.98)
(1.5 -0.2142857 0.98)
(-1.5 -0.07142858 0.98)
(1.5 0.07142858 0.98)
(-1.5 0.2142857 0.98)
(1.5 0.3571429 0.98)
(-1.5 0.5 0.98)
(1.5 0.6428571 0.98)
(-1.5 0.7857143 0.98)
(1.5 0.9285714 0.98)
(-1.5 1.071429 0.98)
(1.5 1.214286 0.98)
(-1.5 1.357143 0.98)
(1.5 1.5 0.98)
(-1.5 1.5 0.98)
(-1.5 1.5 0.04666667)
(-1.5 1.5 0.14)
(1.5 1.5 0.1866666)
(1.5 1.5 0.09333332)
(-1.5 1.5 0.2333333)
(1.5 1.5 0.2799999)
(-1.5 1.5 0.3266667)
(1.5 1.5 0.3733332)
(-1.5 1.5 0.42)
(1.5 1.5 0.4666665)
(-1.5 1.5 0.5133334)
(1.5 1.5 0.5599999)
(-1.5 1.5 0.6066667)
(1.5 1.5 0.6533332)
(-1.5 1.5 0.7000001)
(1.5 1.5 0.7466666)
(-1.5 1.5 0.7933334)
(1.5 1.5 0.84)
(-1.5 1.5 0.8866667)
(1.5 1.5 0.9333333)
(1.5 -1.5 0.04666667)
(1.5 -1.5 0.14)
(-1.5 -1.5 0.1866666)
(-1.5 -1.5 0.09333332)
(1.5 -1.5 0.2333333)
(-1.5 -1.5 0.2799999)
(1.5 -1.5 0.3266667)
(-1.5 -1.5 0.3733332)
(1.5 -1.5 0.42)
(-1.5 -1.5 0.4666665)
(1.5 -1.5 0.5133334)
(-1.5 -1.5 0.5599999)
(1.5 -1.5 0.6066667)
(-1.5 -1.5 0.6533332)
(1.5 -1.5 0.7000001)
(-1.5 -1.5 0.7466666)
(1.5 -1.5 0.7933334)
(-1.5 -1.5 0.84)
(1.5 -1.5 0.8866667)
(-1.5 -1.5 0.9333333)
(1.5 -0.2142857 0.28)
(1.5 -0.2142857 0.3733333)
(1.5 0.2142857 0.28)
(1.5 0.2142857 0.3733333)
(-1.5 0.2142857 0.28)
(-1.5 0.2142857 0.3733333)
(-1.5 -0.2142857 0.28)
(-1.5 -0.2142857 0.3733333)
(1.5 -0.2142857 0.3266667)
(1.5 -0.07142857 0.28)
(1.5 -0.07142857 0.3733333)
(1.5 0.07142858 0.28)
(1.5 0.07142858 0.3733333)
(1.5 0.2142857 0.3266667)
(-1.5 0.2142857 0.3266667)
(-1.5 0.07142857 0.28)
(-1.5 0.07142857 0.3733333)
(-1.5 -0.07142858 0.28)
(-1.5 -0.07142858 0.3733333)
(-1.5 -0.2142857 0.3266667)
(-1.5 -1.357143 0)
(-1.5 -1.357143 0.98)
(1.5 1.5 0.04666666)
(-1.5 -1.5 0.04666666)
(-1.5 -1.071429 0)
(1.5 -1.214286 0)
(-1.5 -0.7857143 0)
(1.5 -0.9285714 0)
(-1.5 -0.5 0)
(1.5 -0.6428571 0)
(-1.5 -0.2142857 0)
(1.5 -0.3571429 0)
(-1.5 0.07142857 0)
(1.5 -0.07142857 0)
(-1.5 0.3571429 0)
(1.5 0.2142857 0)
(-1.5 0.6428571 0)
(1.5 0.5 0)
(-1.5 0.9285714 0)
(1.5 0.7857143 0)
(-1.5 1.214286 0)
(1.5 1.071429 0)
(1.5 1.357143 0)
(1.5 -1.214286 0.98)
(-1.5 -1.071429 0.98)
(1.5 -0.9285714 0.98)
(-1.5 -0.7857143 0.98)
(1.5 -0.6428571 0.98)
(-1.5 -0.5 0.98)
(1.5 -0.3571429 0.98)
(-1.5 -0.2142857 0.98)
(1.5 -0.07142857 0.98)
(-1.5 0.07142857 0.98)
(1.5 0.2142857 0.98)
(-1.5 0.3571429 0.98)
(1.5 0.5 0.98)
(-1.5 0.6428571 0.98)
(1.5 0.7857143 0.98)
(-1.5 0.9285714 0.98)
(1.5 1.071429 0.98)
(-1.5 1.214286 0.98)
(1.5 1.357143 0.98)
(-1.5 1.5 0.09333333)
(1.5 1.5 0.14)
(-1.5 1.5 0.1866667)
(1.5 1.5 0.2333333)
(-1.5 1.5 0.28)
(1.5 1.5 0.3266666)
(-1.5 1.5 0.3733333)
(1.5 1.5 0.4199999)
(-1.5 1.5 0.4666667)
(1.5 1.5 0.5133332)
(-1.5 1.5 0.5600001)
(1.5 1.5 0.6066666)
(-1.5 1.5 0.6533334)
(1.5 1.5 0.6999999)
(-1.5 1.5 0.7466668)
(1.5 1.5 0.7933333)
(-1.5 1.5 0.84)
(1.5 1.5 0.8866667)
(-1.5 1.5 0.9333334)
(1.5 -1.5 0.09333333)
(-1.5 -1.5 0.14)
(1.5 -1.5 0.1866667)
(-1.5 -1.5 0.2333333)
(1.5 -1.5 0.28)
(-1.5 -1.5 0.3266666)
(1.5 -1.5 0.3733333)
(-1.5 -1.5 0.4199999)
(1.5 -1.5 0.4666667)
(-1.5 -1.5 0.5133332)
(1.5 -1.5 0.5600001)
(-1.5 -1.5 0.6066666)
(1.5 -1.5 0.6533334)
(-1.5 -1.5 0.6999999)
(1.5 -1.5 0.7466668)
(-1.5 -1.5 0.7933333)
(1.5 -1.5 0.84)
(-1.5 -1.5 0.8866667)
(1.5 -1.5 0.9333334)
)

// edges

268
(
(0 1)
(1 108)
(108 2)
(5 0)
(22 23)
(20 22)
(24 25)
(109 24)
(25 26)
(29 109)
(46 47)
(47 45)
(110 23)
(22 48)
(51 110)
(46 67)
(111 1)
(0 68)
(71 111)
(24 87)
(3 2)
(112 3)
(2 112)
(5 4)
(113 5)
(4 113)
(6 3)
(114 6)
(3 114)
(4 7)
(115 4)
(7 115)
(8 6)
(116 8)
(6 116)
(7 9)
(117 7)
(9 117)
(10 8)
(118 10)
(8 118)
(9 11)
(119 9)
(11 119)
(12 10)
(120 12)
(10 120)
(11 13)
(121 11)
(13 121)
(14 12)
(122 14)
(12 122)
(13 15)
(123 13)
(15 123)
(16 14)
(124 16)
(14 124)
(15 17)
(125 15)
(17 125)
(18 16)
(126 18)
(16 126)
(17 19)
(127 17)
(19 127)
(20 18)
(128 20)
(18 128)
(19 21)
(129 19)
(21 129)
(21 23)
(130 21)
(23 130)
(27 26)
(26 131)
(131 27)
(29 28)
(28 132)
(132 29)
(30 27)
(27 133)
(133 30)
(28 31)
(31 134)
(134 28)
(32 30)
(30 135)
(135 32)
(31 33)
(33 136)
(136 31)
(34 32)
(32 137)
(137 34)
(33 35)
(35 138)
(138 33)
(36 34)
(34 139)
(139 36)
(35 37)
(37 140)
(140 35)
(38 36)
(36 141)
(141 38)
(37 39)
(39 142)
(142 37)
(40 38)
(38 143)
(143 40)
(39 41)
(41 144)
(144 39)
(42 40)
(40 145)
(145 42)
(41 43)
(43 146)
(146 41)
(44 42)
(42 147)
(147 44)
(43 45)
(45 148)
(148 43)
(46 44)
(149 46)
(44 149)
(49 48)
(48 150)
(150 49)
(51 50)
(151 51)
(50 151)
(52 49)
(49 152)
(152 52)
(50 53)
(153 50)
(53 153)
(54 52)
(52 154)
(154 54)
(53 55)
(155 53)
(55 155)
(56 54)
(54 156)
(156 56)
(55 57)
(157 55)
(57 157)
(58 56)
(56 158)
(158 58)
(57 59)
(159 57)
(59 159)
(60 58)
(58 160)
(160 60)
(59 61)
(161 59)
(61 161)
(62 60)
(60 162)
(162 62)
(61 63)
(163 61)
(63 163)
(64 62)
(62 164)
(164 64)
(63 65)
(165 63)
(65 165)
(66 64)
(64 166)
(166 66)
(65 67)
(167 65)
(67 167)
(47 66)
(168 47)
(66 168)
(69 68)
(68 169)
(169 69)
(71 70)
(170 71)
(70 170)
(72 69)
(69 171)
(171 72)
(70 73)
(172 70)
(73 172)
(74 72)
(72 173)
(173 74)
(73 75)
(174 73)
(75 174)
(76 74)
(74 175)
(175 76)
(75 77)
(176 75)
(77 176)
(78 76)
(76 177)
(177 78)
(77 79)
(178 77)
(79 178)
(80 78)
(78 179)
(179 80)
(79 81)
(180 79)
(81 180)
(82 80)
(80 181)
(181 82)
(81 83)
(182 81)
(83 182)
(84 82)
(82 183)
(183 84)
(83 85)
(184 83)
(85 184)
(86 84)
(84 185)
(185 86)
(85 87)
(186 85)
(87 186)
(25 86)
(187 25)
(86 187)
(88 96)
(96 89)
(97 88)
(89 98)
(99 97)
(98 100)
(90 99)
(100 91)
(101 90)
(91 101)
(92 102)
(102 93)
(103 92)
(93 104)
(105 103)
(104 106)
(94 105)
(106 95)
(107 94)
(95 107)
)

// concaveStart mixedStart nonFeatureStart
88 88 96
// internalStart flatStart openStart multipleStart
248 248 248 268
// normals

352
(
(1 0 0)
(1 0 0)
(1 0 0)
(1 0 0)
(1 0 0)
(1 0 0)
(1 0 0)
(1 0 0)
(1 0 0)
(1 0 0)
(-1 0 0)
(-1 0 0)
(-1 0 0)
(-1 0 0)
(-1 0 0)
(-1 0 0)
(-1 0 0)
(-1 0 0)
(-1 0 0)
(-1 0 0)
(0 0 -1)
(0 -1 0)
(-1 0 0)
(0 0 -1)
(-1 0 0)
(-0 -0 -1)
(1 0 0)
(0 0 -1)
(0 1 0)
(-1 0 0)
(0 0 1)
(-0 -1 0)
(-1 0 0)
(-0 0 1)
(1 0 0)
(0 0 1)
(-1 0 0)
(0 0 1)
(-0 1 0)
(-1 0 0)
(1 0 0)
(0 1 0)
(-1 0 0)
(0 1 0)
(1 -0 0)
(1 -0 0)
(0 -1 0)
(1 0 0)
(0 -1 0)
(-1 -0 0)
(-1 -0 0)
(0 0 0)
(0 0 -1)
(-1 0 0)
(-1 0 0)
(0 0 0)
(-0 -0 -1)
(1 0 0)
(1 0 0)
(0 0 0)
(0 0 -1)
(-1 0 0)
(-1 0 0)
(0 0 0)
(-0 -0 -1)
(1 0 0)
(1 0 0)
(0 0 0)
(0 0 -1)
(-1 0 0)
(-1 0 0)
(0 0 0)
(-0 -0 -1)
(1 0 0)
(1 0 0)
(0 0 0)
(0 0 -1)
(-1 0 0)
(-1 0 0)
(0 0 0)
(-0 -0 -1)
(1 0 0)
(1 0 0)
(0 0 0)
(0 0 -1)
(-1 0 0)
(-1 0 0)
(0 0 0)
(-0 -0 -1)
(1 0 0)
(1 0 0)
(0 0 0)
(0 0 -1)
(-1 0 0)
(-1 0 0)
(0 0 0)
(-0 -0 -1)
(1 0 0)
(1 0 0)
(0 0 0)
(0 0 -1)
(-1 0 0)
(-1 0 0)
(0 0 0)
(-0 -0 -1)
(1 0 0)
(1 0 0)
(0 0 0)
(0 0 -1)
(-1 0 0)
(-1 0 0)
(0 0 0)
(-0 -0 -1)
(1 0 0)
(1 0 0)
(0 0 0)
(0 0 -1)
(-1 0 0)
(-1 0 0)
(0 0 0)
(-0 -0 -1)
(1 0 0)
(1 0 0)
(0 0 0)
(0 0 -1)
(1 0 0)
(0 0 0)
(-0 0 1)
(1 0 0)
(1 0 0)
(0 0 0)
(0 0 1)
(-1 0 0)
(-1 0 0)
(0 0 0)
(-0 0 1)
(1 0 0)
(1 0 0)
(0 0 0)
(0 0 1)
(-1 0 0)
(-1 0 0)
(0 0 0)
(-0 0 1)
(1 0 0)
(1 0 0)
(0 0 0)
(0 0 1)
(-1 0 0)
(-1 0 0)
(0 0 0)
(-0 0 1)
(1 0 0)
(1 0 0)
(0 0 0)
(0 0 1)
(-1 0 0)
(-1 0 0)
(0 0 0)
(-0 0 1)
(1 0 0)
(1 0 0)
(0 0 0)
(0 0 1)
(-1 0 0)
(-1 0 0)
(0 0 0)
(-0 0 1)
(1 0 0)
(1 0 0)
(0 0 0)
(0 0 1)
(-1 0 0)
(-1 0 0)
(0 0 0)
(-0 0 1)
(1 0 0)
(1 0 0)
(0 0 0)
(0 0 1)
(-1 0 0)
(-1 0 0)
(0 0 0)
(-0 0 1)
(1 0 0)
(1 0 0)
(0 0 0)
(0 0 1)
(-1 0 0)
(-1 0 0)
(0 0 0)
(-0 0 1)
(1 0 0)
(1 0 0)
(0 0 0)
(0 0 1)
(-1 0 0)
(-1 0 0)
(0 0 0)
(0 -0 1)
(1 0 0)
(1 0 0)
(0 0 0)
(0 1 0)
(-1 0 0)
(-1 0 0)
(0 0 0)
(0 1 0)
(1 -0 0)
(1 -0 0)
(0 0 0)
(0 1 0)
(-1 0 0)
(-1 0 0)
(0 0 0)
(0 1 0)
(1 -0 0)
(1 -0 0)
(0 0 0)
(0 1 0)
(-1 0 0)
(-1 0 0)
(0 0 0)
(0 1 0)
(1 -0 0)
(1 -0 0)
(0 0 0)
(0 1 0)
(-1 0 0)
(-1 0 0)
(0 0 0)
(0 1 0)
(1 -0 0)
(1 -0 0)
(0 0 0)
(0 1 0)
(-1 0 0)
(-1 0 0)
(0 0 0)
(0 1 0)
(1 -0 0)
(1 -0 0)
(0 0 0)
(0 1 0)
(-1 0 0)
(-1 0 0)
(0 0 0)
(0 1 0)
(1 -0 0)
(1 -0 0)
(0 0 0)
(0 1 0)
(-1 0 0)
(-1 0 0)
(0 0 0)
(0 1 0)
(1 -0 0)
(1 -0 0)
(0 0 0)
(0 1 0)
(-1 0 0)
(-1 0 0)
(0 0 0)
(0 1 0)
(1 -0 0)
(1 -0 0)
(0 0 0)
(0 1 0)
(-1 0 0)
(-1 0 0)
(0 0 0)
(0 1 0)
(1 -0 0)
(1 -0 0)
(0 0 0)
(0 1 0)
(-1 0 0)
(0 0 0)
(0 -1 0)
(1 0 0)
(1 0 0)
(0 0 0)
(0 -1 0)
(-1 -0 0)
(-1 -0 0)
(0 0 0)
(0 -1 0)
(1 0 0)
(1 0 0)
(0 0 0)
(0 -1 0)
(-1 -0 0)
(-1 -0 0)
(0 0 0)
(0 -1 0)
(1 0 0)
(1 0 0)
(0 0 0)
(0 -1 0)
(-1 -0 0)
(-1 -0 0)
(0 0 0)
(0 -1 0)
(1 0 0)
(1 0 0)
(0 0 0)
(0 -1 0)
(-1 -0 0)
(-1 -0 0)
(0 0 0)
(0 -1 0)
(1 0 0)
(1 0 0)
(0 0 0)
(0 -1 0)
(-1 -0 0)
(-1 -0 0)
(0 0 0)
(0 -1 0)
(1 0 0)
(1 0 0)
(0 0 0)
(0 -1 0)
(-1 -0 0)
(-1 -0 0)
(0 0 0)
(0 -1 0)
(1 0 0)
(1 0 0)
(0 0 0)
(0 -1 0)
(-1 -0 0)
(-1 -0 0)
(0 0 0)
(0 -1 0)
(1 0 0)
(1 0 0)
(0 0 0)
(0 -1 0)
(-1 -0 0)
(-1 -0 0)
(0 0 0)
(0 -1 0)
(1 0 0)
(1 0 0)
(0 0 0)
(0 -1 0)
(-1 -0 0)
(-1 -0 0)
(0 0 0)
(0 -1 0)
(1 0 0)
)

// normal volume types

352
(
0
0
0
0
0
0
0
0
0
0
0
0
0
0
0
0
0
0
0
0
0
0
0
0
0
0
0
0
0
0
0
0
0
0
0
0
0
0
0
0
0
0
0
0
0
0
0
0
0
0
0
0
0
0
0
0
0
0
0
0
0
0
0
0
0
0
0
0
0
0
0
0
0
0
0
0
0
0
0
0
0
0
0
0
0
0
0
0
0
0
0
0
0
0
0
0
0
0
0
0
0
0
0
0
0
0
0
0
0
0
0
0
0
0
0
0
0
0
0
0
0
0
0
0
0
0
0
0
0
0
0
0
0
0
0
0
0
0
0
0
0
0
0
0
0
0
0
0
0
0
0
0
0
0
0
0
0
0
0
0
0
0
0
0
0
0
0
0
0
0
0
0
0
0
0
0
0
0
0
0
0
0
0
0
0
0
0
0
0
0
0
0
0
0
0
0
0
0
0
0
0
0
0
0
0
0
0
0
0
0
0
0
0
0
0
0
0
0
0
0
0
0
0
0
0
0
0
0
0
0
0
0
0
0
0
0
0
0
0
0
0
0
0
0
0
0
0
0
0
0
0
0
0
0
0
0
0
0
0
0
0
0
0
0
0
0
0
0
0
0
0
0
0
0
0
0
0
0
0
0
0
0
0
0
0
0
0
0
0
0
0
0
0
0
0
0
0
0
0
0
0
0
0
0
0
0
0
0
0
0
0
0
0
0
0
0
0
0
0
0
0
0
0
0
0
0
0
0
0
0
0
0
0
0
0
0
0
0
0
0
0
0
0
0
0
0
0
0
0
0
0
0
)

// normalDirections

268
(
2(1 -1)
2(1 -1)
2(1 -1)
2(1 -1)
2(1 -1)
2(1 -1)
2(1 -1)
2(1 -1)
2(1 -1)
2(1 -1)
2(1 -1)
2(1 -1)
2(1 -1)
2(1 -1)
2(1 -1)
2(1 -1)
2(1 -1)
2(1 -1)
2(1 -1)
2(1 -1)
2{-1}
2{-1}
2{-1}
2{-1}
2{-1}
2{-1}
2{-1}
2{-1}
2{-1}
2{-1}
2{-1}
2{-1}
2{-1}
2{-1}
2{-1}
2{-1}
2{-1}
2{-1}
2{-1}
2{-1}
2{-1}
2{-1}
2{-1}
2{-1}
2{-1}
2{-1}
2{-1}
2{-1}
2{-1}
2{-1}
2{-1}
2{-1}
2{-1}
2{-1}
2{-1}
2{-1}
2{-1}
2{-1}
2{-1}
2{-1}
2{-1}
2{-1}
2{-1}
2{-1}
2{-1}
2{-1}
2{-1}
2{-1}
2{-1}
2{-1}
2{-1}
2{-1}
2{-1}
2{-1}
2{-1}
2{-1}
2{-1}
2{-1}
2{-1}
2{-1}
2{-1}
2{-1}
2{-1}
2{-1}
2{-1}
2{-1}
2{-1}
2{-1}
2{-1}
2{-1}
2{-1}
2{-1}
2{-1}
2{-1}
2{-1}
2{-1}
2{-1}
2{-1}
2{-1}
2{-1}
2{-1}
2{-1}
2{-1}
2{-1}
2{-1}
2{-1}
2{-1}
2{-1}
2{-1}
2{-1}
2{-1}
2{-1}
2{-1}
2{-1}
2{-1}
2{-1}
2{-1}
2{-1}
2{-1}
2{-1}
2{-1}
2{-1}
2{-1}
2{-1}
2{-1}
2{-1}
2{-1}
2{-1}
2{-1}
2{-1}
2{-1}
2{-1}
2{-1}
2{-1}
2{-1}
2{-1}
2{-1}
2{-1}
2{-1}
2{-1}
2{-1}
2{-1}
2{-1}
2{-1}
2{-1}
2{-1}
2{-1}
2{-1}
2{-1}
2{-1}
2{-1}
2{-1}
2{-1}
2{-1}
2{-1}
2{-1}
2{-1}
2{-1}
2{-1}
2{-1}
2{-1}
2{-1}
2{-1}
2{-1}
2{-1}
2{-1}
2{-1}
2{-1}
2{-1}
2{-1}
2{-1}
2{-1}
2{-1}
2{-1}
2{-1}
2{-1}
2{-1}
2{-1}
2{-1}
2{-1}
2{-1}
2{-1}
2{-1}
2{-1}
2{-1}
2{-1}
2{-1}
2{-1}
2{-1}
2{-1}
2{-1}
2{-1}
2{-1}
2{-1}
2{-1}
2{-1}
2{-1}
2{-1}
2{-1}
2{-1}
2{-1}
2{-1}
2{-1}
2{-1}
2{-1}
2{-1}
2{-1}
2{-1}
2{-1}
2{-1}
2{-1}
2{-1}
2{-1}
2{-1}
2{-1}
2{-1}
2{-1}
2{-1}
2{-1}
2{-1}
2{-1}
2{-1}
2{-1}
2{-1}
2{-1}
2{-1}
2{-1}
2{-1}
2{-1}
2{-1}
2{-1}
2{-1}
2{-1}
2{-1}
2{-1}
2{-1}
2{-1}
2{-1}
2{-1}
2{-1}
2{-1}
2{-1}
2{-1}
2{-1}
2{-1}
2{-1}
2{-1}
2{-1}
1(1)
1(1)
1(1)
1(1)
1(1)
1(1)
1(1)
1(1)
1(1)
1(1)
1(1)
1(1)
1(1)
1(1)
1(1)
1(1)
1(1)
1(1)
1(1)
1(1)
)

// edgeNormals

268
(
2(20 21)
2(20 22)
2(23 24)
2(25 26)
2(27 28)
2(27 29)
2(30 31)
2(30 32)
2(33 34)
2(35 36)
2(37 38)
2(37 39)
2(28 40)
2(41 42)
2(43 44)
2(38 45)
2(21 22)
2(46 47)
2(48 49)
2(31 50)
2(51 52)
2(51 53)
2(51 54)
2(55 56)
2(55 57)
2(55 58)
2(59 60)
2(59 61)
2(59 62)
2(63 64)
2(63 65)
2(63 66)
2(67 68)
2(67 69)
2(67 70)
2(71 72)
2(71 73)
2(71 74)
2(75 76)
2(75 77)
2(75 78)
2(79 80)
2(79 81)
2(79 82)
2(83 84)
2(83 85)
2(83 86)
2(87 88)
2(87 89)
2(87 90)
2(91 92)
2(91 93)
2(91 94)
2(95 96)
2(95 97)
2(95 98)
2(99 100)
2(99 101)
2(99 102)
2(103 104)
2(103 105)
2(103 106)
2(107 108)
2(107 109)
2(107 110)
2(111 112)
2(111 113)
2(111 114)
2(115 116)
2(115 117)
2(115 118)
2(119 120)
2(119 121)
2(119 122)
2(123 124)
2(123 125)
2(123 40)
2(126 127)
2(126 128)
2(126 129)
2(130 131)
2(130 132)
2(130 133)
2(134 135)
2(134 136)
2(134 137)
2(138 139)
2(138 140)
2(138 141)
2(142 143)
2(142 144)
2(142 145)
2(146 147)
2(146 148)
2(146 149)
2(150 151)
2(150 152)
2(150 153)
2(154 155)
2(154 156)
2(154 157)
2(158 159)
2(158 160)
2(158 161)
2(162 163)
2(162 164)
2(162 165)
2(166 167)
2(166 168)
2(166 169)
2(170 171)
2(170 172)
2(170 173)
2(174 175)
2(174 176)
2(174 177)
2(178 179)
2(178 180)
2(178 181)
2(182 183)
2(182 184)
2(182 185)
2(186 187)
2(186 188)
2(186 189)
2(190 191)
2(190 192)
2(190 193)
2(194 195)
2(194 196)
2(194 197)
2(198 199)
2(198 200)
2(198 201)
2(202 203)
2(202 204)
2(202 205)
2(206 207)
2(206 208)
2(206 209)
2(210 211)
2(210 212)
2(210 213)
2(214 215)
2(214 216)
2(214 217)
2(218 219)
2(218 220)
2(218 221)
2(222 223)
2(222 224)
2(222 225)
2(226 227)
2(226 228)
2(226 229)
2(230 231)
2(230 232)
2(230 233)
2(234 235)
2(234 236)
2(234 237)
2(238 239)
2(238 240)
2(238 241)
2(242 243)
2(242 244)
2(242 245)
2(246 247)
2(246 248)
2(246 249)
2(250 251)
2(250 252)
2(250 253)
2(254 255)
2(254 256)
2(254 257)
2(258 259)
2(258 260)
2(258 261)
2(262 263)
2(262 264)
2(262 265)
2(266 267)
2(266 268)
2(266 269)
2(270 271)
2(270 272)
2(270 273)
2(274 275)
2(274 39)
2(274 276)
2(277 278)
2(277 279)
2(277 280)
2(281 282)
2(281 283)
2(281 284)
2(285 286)
2(285 287)
2(285 288)
2(289 290)
2(289 291)
2(289 292)
2(293 294)
2(293 295)
2(293 296)
2(297 298)
2(297 299)
2(297 300)
2(301 302)
2(301 303)
2(301 304)
2(305 306)
2(305 307)
2(305 308)
2(309 310)
2(309 311)
2(309 312)
2(313 314)
2(313 315)
2(313 316)
2(317 318)
2(317 319)
2(317 320)
2(321 322)
2(321 323)
2(321 324)
2(325 326)
2(325 327)
2(325 328)
2(329 330)
2(329 331)
2(329 332)
2(333 334)
2(333 335)
2(333 336)
2(337 338)
2(337 339)
2(337 340)
2(341 342)
2(341 343)
2(341 344)
2(345 346)
2(345 347)
2(345 348)
2(349 350)
2(349 34)
2(349 351)
1(0)
1(1)
1(2)
1(3)
1(4)
1(5)
1(6)
1(7)
1(8)
1(9)
1(10)
1(11)
1(12)
1(13)
1(14)
1(15)
1(16)
1(17)
1(18)
1(19)
)

// featurePointNormals

96
(
3(20 21 26)
3(20 21 22)
3(23 24 51)
4(51 52 53 59)
4(55 56 58 63)
3(25 26 55)
4(59 60 61 67)
4(63 64 66 71)
4(67 68 69 75)
4(71 72 74 79)
4(75 76 77 83)
4(79 80 82 87)
4(83 84 85 91)
4(87 88 90 95)
4(91 92 93 99)
4(95 96 98 103)
4(99 100 101 107)
4(103 104 106 111)
4(107 108 109 115)
4(111 112 114 119)
3(27 29 115)
4(119 120 122 123)
3(27 28 29)
4(27 28 40 123)
3(30 31 32)
4(30 31 34 349)
3(33 34 126)
4(126 127 129 134)
4(130 131 132 138)
3(35 36 130)
4(134 135 137 142)
4(138 139 140 146)
4(142 143 145 150)
4(146 147 148 154)
4(150 151 153 158)
4(154 155 156 162)
4(158 159 161 166)
4(162 163 164 170)
4(166 167 169 174)
4(170 171 172 178)
4(174 175 177 182)
4(178 179 180 186)
4(182 183 185 190)
4(186 187 188 194)
4(190 191 193 198)
3(37 39 194)
4(37 38 45 198)
4(37 38 39 274)
3(41 42 202)
4(202 203 205 210)
4(206 207 209 214)
3(43 44 206)
4(210 211 213 218)
4(214 215 217 222)
4(218 219 221 226)
4(222 223 225 230)
4(226 227 229 234)
4(230 231 233 238)
4(234 235 237 242)
4(238 239 241 246)
4(242 243 245 250)
4(246 247 249 254)
4(250 251 253 258)
4(254 255 257 262)
4(258 259 261 266)
4(262 263 265 270)
4(266 267 269 274)
3(38 45 270)
3(46 47 277)
4(277 278 280 285)
4(281 282 284 289)
3(48 49 281)
4(285 286 288 293)
4(289 290 292 297)
4(293 294 296 301)
4(297 298 300 305)
4(301 302 304 309)
4(305 306 308 313)
4(309 310 312 317)
4(313 314 316 321)
4(317 318 320 325)
4(321 322 324 329)
4(325 326 328 333)
4(329 330 332 337)
4(333 334 336 341)
4(337 338 340 345)
4(341 342 344 349)
3(31 50 345)
1(0)
1(1)
1(6)
1(7)
1(10)
1(11)
1(16)
1(17)
)

// featurePointEdges

96
(
3(3 17 0)
3(0 16 1)
3(20 2 22)
4(20 26 28 21)
4(23 29 30 25)
3(23 3 24)
4(26 32 34 27)
4(29 35 36 31)
4(32 38 40 33)
4(35 41 42 37)
4(38 44 46 39)
4(41 47 48 43)
4(44 50 52 45)
4(47 53 54 49)
4(50 56 58 51)
4(53 59 60 55)
4(56 62 64 57)
4(59 65 66 61)
4(62 68 70 63)
4(65 71 72 67)
3(68 5 69)
4(71 74 75 73)
3(4 13 5)
4(74 76 12 4)
3(6 19 7)
4(8 246 245 6)
3(77 8 78)
4(77 83 84 79)
4(80 86 88 81)
3(80 9 82)
4(83 89 90 85)
4(86 92 94 87)
4(89 95 96 91)
4(92 98 100 93)
4(95 101 102 97)
4(98 104 106 99)
4(101 107 108 103)
4(104 110 112 105)
4(107 113 114 109)
4(110 116 118 111)
4(113 119 120 115)
4(116 122 124 117)
4(119 125 126 121)
4(122 128 130 123)
4(125 131 133 127)
3(128 11 129)
4(131 10 15 132)
4(10 188 189 11)
3(134 13 135)
4(134 140 141 136)
4(137 143 144 139)
3(137 14 138)
4(140 146 147 142)
4(143 149 150 145)
4(146 152 153 148)
4(149 155 156 151)
4(152 158 159 154)
4(155 161 162 157)
4(158 164 165 160)
4(161 167 168 163)
4(164 170 171 166)
4(167 173 174 169)
4(170 176 177 172)
4(173 179 180 175)
4(176 182 183 178)
4(179 185 186 181)
4(182 188 190 184)
3(185 15 187)
3(191 17 192)
4(191 197 198 193)
4(194 200 201 196)
3(194 18 195)
4(197 203 204 199)
4(200 206 207 202)
4(203 209 210 205)
4(206 212 213 208)
4(209 215 216 211)
4(212 218 219 214)
4(215 221 222 217)
4(218 224 225 220)
4(221 227 228 223)
4(224 230 231 226)
4(227 233 234 229)
4(230 236 237 232)
4(233 239 240 235)
4(236 242 243 238)
4(239 245 247 241)
3(242 19 244)
2(248 250)
2(249 251)
2(254 256)
2(255 257)
2(258 260)
2(259 261)
2(264 266)
2(265 267)
)

// regionEdges

20
(
248
249
250
251
252
253
254
255
256
257
258
259
260
261
262
263
264
265
266
267
)



// ************************************************************************* //
