/*--------------------------------*- C++ -*----------------------------------*\
| =========                 |                                                 |
| \\      /  F ield         | foam-extend: Open Source CFD                    |
|  \\    /   O peration     | Version:     4.1                                |
|   \\  /    A nd           | Web:         http://www.foam-extend.org         |
|    \\/     M anipulation  |                                                 |
\*---------------------------------------------------------------------------*/
FoamFile
{
    version     2.0;
    format      ascii;
    class       polyBoundaryMesh;
    location    "constant/polyMesh";
    object      boundary;
}
// * * * * * * * * * * * * * * * * * * * * * * * * * * * * * * * * * * * * * //

6
(
    left
    {
        type            symmetryPlane;
        nFaces          240;
        startFace       127440;
    }
    right
    {
        type            patch;
        nFaces          240;
        startFace       127680;
    }
    down
    {
        type            symmetryPlane;
        nFaces          240;
        startFace       127920;
    }
    up
    {
        type            patch;
        nFaces          240;
        startFace       128160;
    }
    hole
    {
        type            patch;
        nFaces          160;
        startFace       128400;
    }
    frontAndBack
    {
        type            empty;
        nFaces          128000;
        startFace       128560;
    }
)


// ************************************************************************* //
