/*--------------------------------*- C++ -*----------------------------------*\
| =========                 |                                                 |
| \\      /  F ield         | OpenFOAM: The Open Source CFD Toolbox           |
|  \\    /   O peration     | Version:  v2106                                 |
|   \\  /    A nd           | Website:  www.openfoam.com                      |
|    \\/     M anipulation  |                                                 |
\*---------------------------------------------------------------------------*/
FoamFile
{
    version     2.0;
    format      ascii;
    class       volScalarField;
    object      T;
}
// * * * * * * * * * * * * * * * * * * * * * * * * * * * * * * * * * * * * * //

dimensions      [0 0 0 1 0 0 0];

internalField   uniform 300;

boundaryField
{

	frontload
	{
		type            zeroGradient;
	}

	backload
	{
		type            zeroGradient;
	}

	floor
	{
		type            zeroGradient;
	}

	outerfree
	{
		type            zeroGradient;
	}

	innerfree
	{
		type            zeroGradient;
	}

	topandbottom
	{
		type            empty;
	}
}


// ************************************************************************* //
