
/*--------------------------------*- C++ -*----------------------------------*/

// File was generated by SwiftBlock, a Blender 3D addon.

FoamFile
{
    version     2.0;
    format      ascii;
    class       dictionary;
    object      blockMeshDict;
}
// * * * * * * * * * * * * * * * * * * * * * * * * * * * * * * * * * * * * * //

deltaT          1;

writeInterval   1;



// ************************************************************************* //


geometry
{
}
vertices
(
    (-1.2624168395996094 -1.166656494140625 -0.6531867980957031)
    (-1.2624168395996094 -1.166656494140625 -0.02555263042449951)
    (-1.2624170780181885 0.6506619453430176 -0.6531867980957031)
    (-1.2624170780181885 0.6506619453430176 -0.02555263042449951)
    (-0.6096816062927246 -1.166656494140625 -0.6531867980957031)
    (-0.6096816062927246 -1.166656494140625 -0.02555263042449951)
    (-0.6096816062927246 0.6506619453430176 -0.6531867980957031)
    (-0.6096816062927246 0.6506619453430176 -0.02555263042449951)
    (0.12674641609191895 -2.8492050170898438 -0.6531867980957031)
    (0.12674641609191895 -2.8492050170898438 -0.02555263042449951)
    (0.7794816493988037 -2.8492050170898438 -0.02555263042449951)
    (0.7794816493988037 -2.8492050170898438 -0.6531867980957031)
    (0.12674641609191895 -3.422830104827881 -0.6531867980957031)
    (0.12674641609191895 -3.422830104827881 -0.02555263042449951)
    (0.7794816493988037 -3.422830104827881 -0.02555263042449951)
    (0.7794816493988037 -3.422830104827881 -0.6531867980957031)
    (2.4736053943634033 -2.8492050170898438 -0.02555263042449951)
    (2.4736053943634033 -2.8492050170898438 -0.6531867980957031)
    (2.4736053943634033 -3.422830104827881 -0.02555263042449951)
    (2.4736053943634033 -3.422830104827881 -0.6531867980957031)
    (3.2384817600250244 -2.8492050170898438 -0.02555263042449951)
    (3.2384817600250244 -2.8492050170898438 -0.6531867980957031)
    (3.2384817600250244 -3.422830104827881 -0.02555263042449951)
    (3.2384817600250244 -3.422830104827881 -0.6531867980957031)
    (2.4736053943634033 0.6506619453430176 -0.02555263042449951)
    (2.4736053943634033 0.6506619453430176 -0.6531867980957031)
    (3.2384817600250244 0.6506619453430176 -0.02555263042449951)
    (3.2384817600250244 0.6506619453430176 -0.6531867980957031)
    (-1.2624170780181885 1.402491807937622 -0.02555263042449951)
    (-1.2624170780181885 1.402491807937622 -0.6531867980957031)
    (-0.6096816062927246 1.402491807937622 -0.6531867980957031)
    (-0.6096816062927246 1.402491807937622 -0.02555263042449951)
    (2.4736053943634033 1.402491807937622 -0.02555263042449951)
    (2.4736053943634033 1.402491807937622 -0.6531867980957031)
    (3.2384817600250244 1.402491807937622 -0.02555263042449951)
    (3.2384817600250244 1.402491807937622 -0.6531867980957031)
    (-1.2624170780181885 3.3445801734924316 -0.02555263042449951)
    (-1.2624170780181885 3.3445801734924316 -0.6531867980957031)
    (-0.6096816062927246 3.3445801734924316 -0.6531867980957031)
    (-0.6096816062927246 3.3445801734924316 -0.02555263042449951)
    (2.4736053943634033 3.3445801734924316 -0.02555263042449951)
    (2.4736053943634033 3.3445801734924316 -0.6531867980957031)
    (3.2384817600250244 3.3445801734924316 -0.02555263042449951)
    (3.2384817600250244 3.3445801734924316 -0.6531867980957031)
    (-1.2624170780181885 4.072134971618652 -0.02555263042449951)
    (-1.2624170780181885 4.072134971618652 -0.6531867980957031)
    (-0.6096816062927246 4.072134971618652 -0.6531867980957031)
    (-0.6096816062927246 4.072134971618652 -0.02555263042449951)
    (2.4736053943634033 4.072134971618652 -0.02555263042449951)
    (2.4736053943634033 4.072134971618652 -0.6531867980957031)
    (3.2384817600250244 4.072134971618652 -0.02555263042449951)
    (3.2384817600250244 4.072134971618652 -0.6531867980957031)
    (1.656980276107788 6.1620025634765625 -0.02555263042449951)
    (1.656980276107788 6.1620025634765625 -0.6531867980957031)
    (2.309715747833252 6.1620025634765625 -0.6531867980957031)
    (2.309715747833252 6.1620025634765625 -0.02555263042449951)
    (2.4736053943634033 6.1620025634765625 -0.02555263042449951)
    (2.4736053943634033 6.1620025634765625 -0.6531867980957031)
    (3.2384817600250244 6.1620025634765625 -0.02555263042449951)
    (3.2384817600250244 6.1620025634765625 -0.6531867980957031)
    (1.656980276107788 6.934959888458252 -0.02555263042449951)
    (1.656980276107788 6.934959888458252 -0.6531867980957031)
    (2.309715747833252 6.934959888458252 -0.6531867980957031)
    (2.309715747833252 6.934959888458252 -0.02555263042449951)
    (2.4736053943634033 6.934959888458252 -0.02555263042449951)
    (2.4736053943634033 6.934959888458252 -0.6531867980957031)
    (3.2384817600250244 6.934959888458252 -0.02555263042449951)
    (3.2384817600250244 6.934959888458252 -0.6531867980957031)
);
edges
(
);
faces
(
);
blocks
(
// block id 0 
hex (0 2 3 1 4 6 7 5)  (30 1 10) edgeGrading (
(
 (0 0 1) (1 30 1) (0 0 1) 
)
(
 (0 0 1) (1 30 1) (0 0 1) 
)
(
 (0 0 1) (1 30 1) (0 0 1) 
)
(
 (0 0 1) (1 30 1) (0 0 1) 
)
(
 (0 0 1) (1 1 1) (0 0 1) 
)
(
 (0 0 1) (1 1 1) (0 0 1) 
)
(
 (0 0 1) (1 1 1) (0 0 1) 
)
(
 (0 0 1) (1 1 1) (0 0 1) 
)
(
 (0 0 1) (1 10 1) (0 0 1) 
)
(
 (0 0 1) (1 10 1) (0 0 1) 
)
(
 (0 0 1) (1 10 1) (0 0 1) 
)
(
 (0 0 1) (1 10 1) (0 0 1) 
)
)
// block id 1 
hex (8 9 10 11 0 1 5 4)  (1 10 30) edgeGrading (
(
 (0 0 1) (1 1 1) (0 0 1) 
)
(
 (0 0 1) (1 1 1) (0 0 1) 
)
(
 (0 0 1) (1 1 1) (0 0 1) 
)
(
 (0 0 1) (1 1 1) (0 0 1) 
)
(
 (0 0 1) (1 10 1) (0 0 1) 
)
(
 (0 0 1) (1 10 1) (0 0 1) 
)
(
 (0 0 1) (1 10 1) (0 0 1) 
)
(
 (0 0 1) (1 10 1) (0 0 1) 
)
(
 (0 0 1) (1 30 1) (0 0 1) 
)
(
 (0 0 1) (1 30 1) (0 0 1) 
)
(
 (0 0 1) (1 30 1) (0 0 1) 
)
(
 (0 0 1) (1 30 1) (0 0 1) 
)
)
// block id 2 
hex (2 3 7 6 29 28 31 30)  (1 10 10) edgeGrading (
(
 (0 0 1) (1 1 1) (0 0 1) 
)
(
 (0 0 1) (1 1 1) (0 0 1) 
)
(
 (0 0 1) (1 1 1) (0 0 1) 
)
(
 (0 0 1) (1 1 1) (0 0 1) 
)
(
 (0 0 1) (1 10 1) (0 0 1) 
)
(
 (0 0 1) (1 10 1) (0 0 1) 
)
(
 (0 0 1) (1 10 1) (0 0 1) 
)
(
 (0 0 1) (1 10 1) (0 0 1) 
)
(
 (0 0 1) (1 10 1) (0 0 1) 
)
(
 (0 0 1) (1 10 1) (0 0 1) 
)
(
 (0 0 1) (1 10 1) (0 0 1) 
)
(
 (0 0 1) (1 10 1) (0 0 1) 
)
)
// block id 3 
hex (6 7 24 25 30 31 32 33)  (1 10 10) edgeGrading (
(
 (0 0 1) (1 1 1) (0 0 1) 
)
(
 (0 0 1) (1 1 1) (0 0 1) 
)
(
 (0 0 1) (1 1 1) (0 0 1) 
)
(
 (0 0 1) (1 1 1) (0 0 1) 
)
(
 (0 0 1) (1 10 1) (0 0 1) 
)
(
 (0 0 1) (1 10 1) (0 0 1) 
)
(
 (0 0 1) (1 10 1) (0 0 1) 
)
(
 (0 0 1) (1 10 1) (0 0 1) 
)
(
 (0 0 1) (1 10 1) (0 0 1) 
)
(
 (0 0 1) (1 10 1) (0 0 1) 
)
(
 (0 0 1) (1 10 1) (0 0 1) 
)
(
 (0 0 1) (1 10 1) (0 0 1) 
)
)
// block id 4 
hex (12 13 14 15 8 9 10 11)  (1 10 10) edgeGrading (
(
 (0 0 1) (1 1 1) (0 0 1) 
)
(
 (0 0 1) (1 1 1) (0 0 1) 
)
(
 (0 0 1) (1 1 1) (0 0 1) 
)
(
 (0 0 1) (1 1 1) (0 0 1) 
)
(
 (0 0 1) (1 10 1) (0 0 1) 
)
(
 (0 0 1) (1 10 1) (0 0 1) 
)
(
 (0 0 1) (1 10 1) (0 0 1) 
)
(
 (0 0 1) (1 10 1) (0 0 1) 
)
(
 (0 0 1) (1 10 1) (0 0 1) 
)
(
 (0 0 1) (1 10 1) (0 0 1) 
)
(
 (0 0 1) (1 10 1) (0 0 1) 
)
(
 (0 0 1) (1 10 1) (0 0 1) 
)
)
// block id 5 
hex (16 17 19 18 10 11 15 14)  (1 10 30) edgeGrading (
(
 (0 0 1) (1 1 1) (0 0 1) 
)
(
 (0 0 1) (1 1 1) (0 0 1) 
)
(
 (0 0 1) (1 1 1) (0 0 1) 
)
(
 (0 0 1) (1 1 1) (0 0 1) 
)
(
 (0 0 1) (1 10 1) (0 0 1) 
)
(
 (0 0 1) (1 10 1) (0 0 1) 
)
(
 (0 0 1) (1 10 1) (0 0 1) 
)
(
 (0 0 1) (1 10 1) (0 0 1) 
)
(
 (0 0 1) (1 30 1) (0 0 1) 
)
(
 (0 0 1) (1 30 1) (0 0 1) 
)
(
 (0 0 1) (1 30 1) (0 0 1) 
)
(
 (0 0 1) (1 30 1) (0 0 1) 
)
)
// block id 6 
hex (20 21 23 22 16 17 19 18)  (1 10 10) edgeGrading (
(
 (0 0 1) (1 1 1) (0 0 1) 
)
(
 (0 0 1) (1 1 1) (0 0 1) 
)
(
 (0 0 1) (1 1 1) (0 0 1) 
)
(
 (0 0 1) (1 1 1) (0 0 1) 
)
(
 (0 0 1) (1 10 1) (0 0 1) 
)
(
 (0 0 1) (1 10 1) (0 0 1) 
)
(
 (0 0 1) (1 10 1) (0 0 1) 
)
(
 (0 0 1) (1 10 1) (0 0 1) 
)
(
 (0 0 1) (1 10 1) (0 0 1) 
)
(
 (0 0 1) (1 10 1) (0 0 1) 
)
(
 (0 0 1) (1 10 1) (0 0 1) 
)
(
 (0 0 1) (1 10 1) (0 0 1) 
)
)
// block id 7 
hex (24 25 27 26 16 17 21 20)  (1 10 30) edgeGrading (
(
 (0 0 1) (1 1 1) (0 0 1) 
)
(
 (0 0 1) (1 1 1) (0 0 1) 
)
(
 (0 0 1) (1 1 1) (0 0 1) 
)
(
 (0 0 1) (1 1 1) (0 0 1) 
)
(
 (0 0 1) (1 10 1) (0 0 1) 
)
(
 (0 0 1) (1 10 1) (0 0 1) 
)
(
 (0 0 1) (1 10 1) (0 0 1) 
)
(
 (0 0 1) (1 10 1) (0 0 1) 
)
(
 (0 0 1) (1 30 1) (0 0 1) 
)
(
 (0 0 1) (1 30 1) (0 0 1) 
)
(
 (0 0 1) (1 30 1) (0 0 1) 
)
(
 (0 0 1) (1 30 1) (0 0 1) 
)
)
// block id 8 
hex (32 33 35 34 24 25 27 26)  (1 10 10) edgeGrading (
(
 (0 0 1) (1 1 1) (0 0 1) 
)
(
 (0 0 1) (1 1 1) (0 0 1) 
)
(
 (0 0 1) (1 1 1) (0 0 1) 
)
(
 (0 0 1) (1 1 1) (0 0 1) 
)
(
 (0 0 1) (1 10 1) (0 0 1) 
)
(
 (0 0 1) (1 10 1) (0 0 1) 
)
(
 (0 0 1) (1 10 1) (0 0 1) 
)
(
 (0 0 1) (1 10 1) (0 0 1) 
)
(
 (0 0 1) (1 10 1) (0 0 1) 
)
(
 (0 0 1) (1 10 1) (0 0 1) 
)
(
 (0 0 1) (1 10 1) (0 0 1) 
)
(
 (0 0 1) (1 10 1) (0 0 1) 
)
)
// block id 9 
hex (36 37 38 39 28 29 30 31)  (1 10 30) edgeGrading (
(
 (0 0 1) (1 1 1) (0 0 1) 
)
(
 (0 0 1) (1 1 1) (0 0 1) 
)
(
 (0 0 1) (1 1 1) (0 0 1) 
)
(
 (0 0 1) (1 1 1) (0 0 1) 
)
(
 (0 0 1) (1 10 1) (0 0 1) 
)
(
 (0 0 1) (1 10 1) (0 0 1) 
)
(
 (0 0 1) (1 10 1) (0 0 1) 
)
(
 (0 0 1) (1 10 1) (0 0 1) 
)
(
 (0 0 1) (1 30 1) (0 0 1) 
)
(
 (0 0 1) (1 30 1) (0 0 1) 
)
(
 (0 0 1) (1 30 1) (0 0 1) 
)
(
 (0 0 1) (1 30 1) (0 0 1) 
)
)
// block id 10 
hex (40 41 43 42 32 33 35 34)  (1 10 30) edgeGrading (
(
 (0 0 1) (1 1 1) (0 0 1) 
)
(
 (0 0 1) (1 1 1) (0 0 1) 
)
(
 (0 0 1) (1 1 1) (0 0 1) 
)
(
 (0 0 1) (1 1 1) (0 0 1) 
)
(
 (0 0 1) (1 10 1) (0 0 1) 
)
(
 (0 0 1) (1 10 1) (0 0 1) 
)
(
 (0 0 1) (1 10 1) (0 0 1) 
)
(
 (0 0 1) (1 10 1) (0 0 1) 
)
(
 (0 0 1) (1 30 1) (0 0 1) 
)
(
 (0 0 1) (1 30 1) (0 0 1) 
)
(
 (0 0 1) (1 30 1) (0 0 1) 
)
(
 (0 0 1) (1 30 1) (0 0 1) 
)
)
// block id 11 
hex (44 45 46 47 36 37 38 39)  (1 10 10) edgeGrading (
(
 (0 0 1) (1 1 1) (0 0 1) 
)
(
 (0 0 1) (1 1 1) (0 0 1) 
)
(
 (0 0 1) (1 1 1) (0 0 1) 
)
(
 (0 0 1) (1 1 1) (0 0 1) 
)
(
 (0 0 1) (1 10 1) (0 0 1) 
)
(
 (0 0 1) (1 10 1) (0 0 1) 
)
(
 (0 0 1) (1 10 1) (0 0 1) 
)
(
 (0 0 1) (1 10 1) (0 0 1) 
)
(
 (0 0 1) (1 10 1) (0 0 1) 
)
(
 (0 0 1) (1 10 1) (0 0 1) 
)
(
 (0 0 1) (1 10 1) (0 0 1) 
)
(
 (0 0 1) (1 10 1) (0 0 1) 
)
)
// block id 12 
hex (38 39 40 41 46 47 48 49)  (1 10 10) edgeGrading (
(
 (0 0 1) (1 1 1) (0 0 1) 
)
(
 (0 0 1) (1 1 1) (0 0 1) 
)
(
 (0 0 1) (1 1 1) (0 0 1) 
)
(
 (0 0 1) (1 1 1) (0 0 1) 
)
(
 (0 0 1) (1 10 1) (0 0 1) 
)
(
 (0 0 1) (1 10 1) (0 0 1) 
)
(
 (0 0 1) (1 10 1) (0 0 1) 
)
(
 (0 0 1) (1 10 1) (0 0 1) 
)
(
 (0 0 1) (1 10 1) (0 0 1) 
)
(
 (0 0 1) (1 10 1) (0 0 1) 
)
(
 (0 0 1) (1 10 1) (0 0 1) 
)
(
 (0 0 1) (1 10 1) (0 0 1) 
)
)
// block id 13 
hex (48 49 51 50 40 41 43 42)  (1 10 10) edgeGrading (
(
 (0 0 1) (1 1 1) (0 0 1) 
)
(
 (0 0 1) (1 1 1) (0 0 1) 
)
(
 (0 0 1) (1 1 1) (0 0 1) 
)
(
 (0 0 1) (1 1 1) (0 0 1) 
)
(
 (0 0 1) (1 10 1) (0 0 1) 
)
(
 (0 0 1) (1 10 1) (0 0 1) 
)
(
 (0 0 1) (1 10 1) (0 0 1) 
)
(
 (0 0 1) (1 10 1) (0 0 1) 
)
(
 (0 0 1) (1 10 1) (0 0 1) 
)
(
 (0 0 1) (1 10 1) (0 0 1) 
)
(
 (0 0 1) (1 10 1) (0 0 1) 
)
(
 (0 0 1) (1 10 1) (0 0 1) 
)
)
// block id 14 
hex (52 53 54 55 44 45 46 47)  (1 10 30) edgeGrading (
(
 (0 0 1) (1 1 1) (0 0 1) 
)
(
 (0 0 1) (1 1 1) (0 0 1) 
)
(
 (0 0 1) (1 1 1) (0 0 1) 
)
(
 (0 0 1) (1 1 1) (0 0 1) 
)
(
 (0 0 1) (1 10 1) (0 0 1) 
)
(
 (0 0 1) (1 10 1) (0 0 1) 
)
(
 (0 0 1) (1 10 1) (0 0 1) 
)
(
 (0 0 1) (1 10 1) (0 0 1) 
)
(
 (0 0 1) (1 30 1) (0 0 1) 
)
(
 (0 0 1) (1 30 1) (0 0 1) 
)
(
 (0 0 1) (1 30 1) (0 0 1) 
)
(
 (0 0 1) (1 30 1) (0 0 1) 
)
)
// block id 15 
hex (56 57 59 58 48 49 51 50)  (1 10 30) edgeGrading (
(
 (0 0 1) (1 1 1) (0 0 1) 
)
(
 (0 0 1) (1 1 1) (0 0 1) 
)
(
 (0 0 1) (1 1 1) (0 0 1) 
)
(
 (0 0 1) (1 1 1) (0 0 1) 
)
(
 (0 0 1) (1 10 1) (0 0 1) 
)
(
 (0 0 1) (1 10 1) (0 0 1) 
)
(
 (0 0 1) (1 10 1) (0 0 1) 
)
(
 (0 0 1) (1 10 1) (0 0 1) 
)
(
 (0 0 1) (1 30 1) (0 0 1) 
)
(
 (0 0 1) (1 30 1) (0 0 1) 
)
(
 (0 0 1) (1 30 1) (0 0 1) 
)
(
 (0 0 1) (1 30 1) (0 0 1) 
)
)
// block id 16 
hex (60 61 62 63 52 53 54 55)  (1 10 10) edgeGrading (
(
 (0 0 1) (1 1 1) (0 0 1) 
)
(
 (0 0 1) (1 1 1) (0 0 1) 
)
(
 (0 0 1) (1 1 1) (0 0 1) 
)
(
 (0 0 1) (1 1 1) (0 0 1) 
)
(
 (0 0 1) (1 10 1) (0 0 1) 
)
(
 (0 0 1) (1 10 1) (0 0 1) 
)
(
 (0 0 1) (1 10 1) (0 0 1) 
)
(
 (0 0 1) (1 10 1) (0 0 1) 
)
(
 (0 0 1) (1 10 1) (0 0 1) 
)
(
 (0 0 1) (1 10 1) (0 0 1) 
)
(
 (0 0 1) (1 10 1) (0 0 1) 
)
(
 (0 0 1) (1 10 1) (0 0 1) 
)
)
// block id 17 
hex (54 55 56 57 62 63 64 65)  (1 10 10) edgeGrading (
(
 (0 0 1) (1 1 1) (0 0 1) 
)
(
 (0 0 1) (1 1 1) (0 0 1) 
)
(
 (0 0 1) (1 1 1) (0 0 1) 
)
(
 (0 0 1) (1 1 1) (0 0 1) 
)
(
 (0 0 1) (1 10 1) (0 0 1) 
)
(
 (0 0 1) (1 10 1) (0 0 1) 
)
(
 (0 0 1) (1 10 1) (0 0 1) 
)
(
 (0 0 1) (1 10 1) (0 0 1) 
)
(
 (0 0 1) (1 10 1) (0 0 1) 
)
(
 (0 0 1) (1 10 1) (0 0 1) 
)
(
 (0 0 1) (1 10 1) (0 0 1) 
)
(
 (0 0 1) (1 10 1) (0 0 1) 
)
)
// block id 18 
hex (64 65 67 66 56 57 59 58)  (1 10 10) edgeGrading (
(
 (0 0 1) (1 1 1) (0 0 1) 
)
(
 (0 0 1) (1 1 1) (0 0 1) 
)
(
 (0 0 1) (1 1 1) (0 0 1) 
)
(
 (0 0 1) (1 1 1) (0 0 1) 
)
(
 (0 0 1) (1 10 1) (0 0 1) 
)
(
 (0 0 1) (1 10 1) (0 0 1) 
)
(
 (0 0 1) (1 10 1) (0 0 1) 
)
(
 (0 0 1) (1 10 1) (0 0 1) 
)
(
 (0 0 1) (1 10 1) (0 0 1) 
)
(
 (0 0 1) (1 10 1) (0 0 1) 
)
(
 (0 0 1) (1 10 1) (0 0 1) 
)
(
 (0 0 1) (1 10 1) (0 0 1) 
)
)
);

patches
(
     empty topandbottom
    (
        (6 2 29 30)
        (5 1 9 10)
        (2 6 4 0)
        (7 3 1 5)
        (8 11 15 12)
        (0 4 11 8)
        (10 9 13 14)
        (10 14 18 16)
        (16 18 22 20)
        (15 11 17 19)
        (19 17 21 23)
        (6 30 33 25)
        (21 17 25 27)
        (16 20 26 24)
        (35 33 41 43)
        (24 26 34 32)
        (3 7 31 28)
        (27 25 33 35)
        (40 48 47 39)
        (40 42 50 48)
        (30 29 37 38)
        (32 34 42 40)
        (28 31 39 36)
        (48 50 58 56)
        (46 45 53 54)
        (36 39 47 44)
        (43 41 49 51)
        (38 37 45 46)
        (59 57 65 67)
        (44 47 55 52)
        (51 49 57 59)
        (54 53 61 62)
        (56 58 66 64)
        (52 55 63 60)
        (55 56 64 63)
        (65 57 54 62)
        (49 41 38 46)
        (7 24 32 31)
    )
     patch frontload
    (
        (0 1 3 2)
    )
     patch backload
    (
        (29 28 36 37)
    )
     patch floor
    (
        (21 20 22 23)
        (20 21 27 26)
        (26 27 35 34)
        (34 35 43 42)
        (42 43 51 50)
        (58 59 67 66)
        (50 51 59 58)
    )
     wall outerfree
    (
        (1 0 8 9)
        (15 14 13 12)
        (9 8 12 13)
        (14 15 19 18)
        (18 19 23 22)
        (2 3 28 29)
        (37 36 44 45)
        (45 44 52 53)
        (61 60 63 62)
        (65 64 66 67)
        (53 52 60 61)
        (62 63 64 65)
    )
     wall innerfree
    (
        (6 7 5 4)
        (4 5 10 11)
        (11 10 16 17)
        (17 16 24 25)
        (30 31 32 33)
        (31 30 38 39)
        (33 32 40 41)
        (48 49 46 47)
        (49 48 56 57)
        (47 46 54 55)
        (54 57 56 55)
        (41 40 39 38)
        (6 25 24 7)
    )
);